version 2
run General-0-20210927-13:33:22-85953
attr configname General
attr datetime 20210927-13:33:22
attr experiment General
attr inifile omnetpp.ini
attr iterationvars ""
attr iterationvarsf ""
attr measurement ""
attr network myexample
attr processid 85953
attr repetition 0
attr replication #0
attr resultdir results
attr runnumber 0
attr seedset 0
param **.ndp.typename "\"Ndp\""
param **.client.ndp.ndpAlgorithmClass "\"DumbNDP\""
param **.client2.ndp.ndpAlgorithmClass "\"DumbNDP\""
param **.server.ndp.ndpAlgorithmClass "\"DumbNDP\""
param **.ndp.mss 1000
param **.client.numApps 1
param **.client.app[*].typename "\"NdpBasicClientApp\""
param **.client.app[*].localAddress "\"client\""
param **.client.app[*].localPort -1
param **.client.app[*].connectAddress "\"server\""
param **.client.app[0].connectPort 80
param **.client.app[*].startTime 0s
param **.client.app[*].idleInterval 10s
param **.client.app[*].isLongFlow false
param **.client.app[*].numPacketsToSend 50
param **.client.ppp[*].queue.typename "\"\""
param **.client2.numApps 1
param **.client2.app[*].typename "\"NdpBasicClientApp\""
param **.client2.app[*].localAddress "\"client2\""
param **.client2.app[*].localPort -1
param **.client2.app[*].connectAddress "\"server\""
param **.client2.app[0].connectPort 81
param **.client2.app[*].startTime 0s
param **.client2.app[*].idleInterval 10s
param **.client2.app[*].isLongFlow false
param **.client2.app[*].numPacketsToSend 50
param **.client2.ppp[*].queue.typename "\"\""
param **.initialWindow 8
param **.server.numApps 2
param **.server.app[*].typename "\"NdpSinkApp\""
param **.server.app[*].localAddress "\"server\""
param **.server.app[0].localPort 80
param **.server.app[1].localPort 81
param myexample.router.ppp[*].ppp.queue.typename "\"NDPQueue\""
param myexample.router.ppp[*].ppp.queue.packetCapacity 1
param **.networkLayer.configurator.networkConfiguratorModule "\"\""

vector 0 myexample.client.ppp[0].ppp transmissionState:vector ETV
attr interpolationmode sample-hold
attr source transmissionStateChanged
attr title "tx state, vector"
vector 1 myexample.client2.ppp[0].ppp transmissionState:vector ETV
attr interpolationmode sample-hold
attr source transmissionStateChanged
attr title "tx state, vector"
vector 2 myexample.server.ppp[0].ppp transmissionState:vector ETV
attr interpolationmode sample-hold
attr source transmissionStateChanged
attr title "tx state, vector"
vector 3 myexample.router.ppp[0].ppp transmissionState:vector ETV
attr interpolationmode sample-hold
attr source transmissionStateChanged
attr title "tx state, vector"
vector 4 myexample.router.ppp[1].ppp transmissionState:vector ETV
attr interpolationmode sample-hold
attr source transmissionStateChanged
attr title "tx state, vector"
vector 5 myexample.router.ppp[2].ppp transmissionState:vector ETV
attr interpolationmode sample-hold
attr source transmissionStateChanged
attr title "tx state, vector"
vector 6 myexample.client.ppp[0].ppp rcvdPkFromHl:vector(packetBytes) ETV
attr interpolationmode none
attr source packetReceivedFromUpper
attr title "packets received from higher layer, vector(packetBytes)"
vector 7 myexample.client.ppp[0].ppp.queue packetPushed:vector(packetBytes) ETV
attr interpolationmode none
attr title "packet pushed, vector(packetBytes)"
vector 8 myexample.client.ppp[0].ppp.queue queueLength:vector ETV
attr interpolationmode sample-hold
attr source "count(packetPushed) - count(packetPopped) - count(packetRemoved) - count(packetDropped)"
attr title "queue length, vector"
vector 9 myexample.client.ppp[0].ppp.queue packetPopped:vector(packetBytes) ETV
attr interpolationmode none
attr title "packet popped, vector(packetBytes)"
vector 10 myexample.client.ppp[0].ppp.queue queueingTime:vector ETV
attr interpolationmode none
attr source queueingTime(packetPopped)
attr title "queueing times, vector"
attr unit s
vector 11 myexample.client.ppp[0].ppp txPk:vector(packetBytes) ETV
attr interpolationmode none
attr source packetSentToLower
attr title "packets transmitted, vector(packetBytes)"
vector 12 myexample.client2.ppp[0].ppp rcvdPkFromHl:vector(packetBytes) ETV
attr interpolationmode none
attr source packetReceivedFromUpper
attr title "packets received from higher layer, vector(packetBytes)"
vector 13 myexample.client2.ppp[0].ppp.queue packetPushed:vector(packetBytes) ETV
attr interpolationmode none
attr title "packet pushed, vector(packetBytes)"
vector 14 myexample.client2.ppp[0].ppp.queue queueLength:vector ETV
attr interpolationmode sample-hold
attr source "count(packetPushed) - count(packetPopped) - count(packetRemoved) - count(packetDropped)"
attr title "queue length, vector"
vector 15 myexample.client2.ppp[0].ppp.queue packetPopped:vector(packetBytes) ETV
attr interpolationmode none
attr title "packet popped, vector(packetBytes)"
vector 16 myexample.client2.ppp[0].ppp.queue queueingTime:vector ETV
attr interpolationmode none
attr source queueingTime(packetPopped)
attr title "queueing times, vector"
attr unit s
vector 17 myexample.client2.ppp[0].ppp txPk:vector(packetBytes) ETV
attr interpolationmode none
attr source packetSentToLower
attr title "packets transmitted, vector(packetBytes)"
vector 18 myexample.router.ppp[1].ppp rxPkOk:vector(packetBytes) ETV
attr interpolationmode none
attr source rxPkOk
attr title "packets received OK, vector(packetBytes)"
vector 19 myexample.router.ppp[1].ppp passedUpPk:vector(packetBytes) ETV
attr interpolationmode none
attr source packetSentToUpper
attr title "packets passed to higher layer, vector(packetBytes)"
vector 20 myexample.router.ppp[2].ppp rxPkOk:vector(packetBytes) ETV
attr interpolationmode none
attr source rxPkOk
attr title "packets received OK, vector(packetBytes)"
vector 21 myexample.router.ppp[2].ppp passedUpPk:vector(packetBytes) ETV
attr interpolationmode none
attr source packetSentToUpper
attr title "packets passed to higher layer, vector(packetBytes)"
vector 22 myexample.router.ppp[0].ppp rcvdPkFromHl:vector(packetBytes) ETV
attr interpolationmode none
attr source packetReceivedFromUpper
attr title "packets received from higher layer, vector(packetBytes)"
vector 23 myexample.router.ppp[0].ppp txPk:vector(packetBytes) ETV
attr interpolationmode none
attr source packetSentToLower
attr title "packets transmitted, vector(packetBytes)"
vector 24 myexample.server.ppp[0].ppp rxPkOk:vector(packetBytes) ETV
attr interpolationmode none
attr source rxPkOk
attr title "packets received OK, vector(packetBytes)"
vector 25 myexample.server.ppp[0].ppp passedUpPk:vector(packetBytes) ETV
attr interpolationmode none
attr source packetSentToUpper
attr title "packets passed to higher layer, vector(packetBytes)"
vector 26 myexample.server.app[0] rcvdPk:vector(packetBytes) ETV
attr interpolationmode none
attr source rcvdPk
attr title "packets (symbols) received, vector(packetBytes)"
vector 27 myexample.server.ppp[0].ppp rcvdPkFromHl:vector(packetBytes) ETV
attr interpolationmode none
attr source packetReceivedFromUpper
attr title "packets received from higher layer, vector(packetBytes)"
vector 28 myexample.server.ppp[0].ppp.queue packetPushed:vector(packetBytes) ETV
attr interpolationmode none
attr title "packet pushed, vector(packetBytes)"
vector 29 myexample.server.ppp[0].ppp.queue queueLength:vector ETV
attr interpolationmode sample-hold
attr source "count(packetPushed) - count(packetPopped) - count(packetRemoved) - count(packetDropped)"
attr title "queue length, vector"
vector 30 myexample.server.ppp[0].ppp.queue packetPopped:vector(packetBytes) ETV
attr interpolationmode none
attr title "packet popped, vector(packetBytes)"
vector 31 myexample.server.ppp[0].ppp.queue queueingTime:vector ETV
attr interpolationmode none
attr source queueingTime(packetPopped)
attr title "queueing times, vector"
attr unit s
vector 32 myexample.server.ppp[0].ppp txPk:vector(packetBytes) ETV
attr interpolationmode none
attr source packetSentToLower
attr title "packets transmitted, vector(packetBytes)"
vector 33 myexample.server.app[1] rcvdPk:vector(packetBytes) ETV
attr interpolationmode none
attr source rcvdPk
attr title "packets (symbols) received, vector(packetBytes)"
vector 34 myexample.router.ppp[0].ppp rxPkOk:vector(packetBytes) ETV
attr interpolationmode none
attr source rxPkOk
attr title "packets received OK, vector(packetBytes)"
vector 35 myexample.router.ppp[0].ppp passedUpPk:vector(packetBytes) ETV
attr interpolationmode none
attr source packetSentToUpper
attr title "packets passed to higher layer, vector(packetBytes)"
vector 36 myexample.router.ppp[1].ppp rcvdPkFromHl:vector(packetBytes) ETV
attr interpolationmode none
attr source packetReceivedFromUpper
attr title "packets received from higher layer, vector(packetBytes)"
vector 37 myexample.router.ppp[1].ppp txPk:vector(packetBytes) ETV
attr interpolationmode none
attr source packetSentToLower
attr title "packets transmitted, vector(packetBytes)"
vector 38 myexample.router.ppp[2].ppp rcvdPkFromHl:vector(packetBytes) ETV
attr interpolationmode none
attr source packetReceivedFromUpper
attr title "packets received from higher layer, vector(packetBytes)"
vector 39 myexample.router.ppp[2].ppp txPk:vector(packetBytes) ETV
attr interpolationmode none
attr source packetSentToLower
attr title "packets transmitted, vector(packetBytes)"
vector 40 myexample.client.ppp[0].ppp rxPkOk:vector(packetBytes) ETV
attr interpolationmode none
attr source rxPkOk
attr title "packets received OK, vector(packetBytes)"
vector 41 myexample.client.ppp[0].ppp passedUpPk:vector(packetBytes) ETV
attr interpolationmode none
attr source packetSentToUpper
attr title "packets passed to higher layer, vector(packetBytes)"
vector 42 myexample.client2.ppp[0].ppp rxPkOk:vector(packetBytes) ETV
attr interpolationmode none
attr source rxPkOk
attr title "packets received OK, vector(packetBytes)"
vector 43 myexample.client2.ppp[0].ppp passedUpPk:vector(packetBytes) ETV
attr interpolationmode none
attr source packetSentToUpper
attr title "packets passed to higher layer, vector(packetBytes)"
vector 44 myexample.router.ppp[0].ppp.queue numTrimmedPacketsVec ETV
0	0	0	0
0	27	0	1
0	43	0.000008376	0
0	43	0.000008376	1
0	45	0.000016752	0
0	45	0.000016752	1
0	53	0.000025128	0
0	53	0.000025128	1
0	62	0.000033504	0
0	62	0.000033504	1
0	78	0.00004188	0
0	78	0.00004188	1
0	98	0.000050256	0
0	98	0.000050256	1
0	125	0.000058632	0
0	125	0.000058632	1
0	148	0.000067008	0
0	190	0.00007788	1
0	214	0.000086256	0
0	265	0.00010188	1
0	292	0.000110256	0
0	344	0.00012588	1
0	371	0.000134256	0
0	423	0.000150016	1
0	450	0.000158392	0
0	499	0.00017388	1
0	525	0.000182256	0
0	571	0.00019788	1
0	597	0.000206256	0
0	647	0.00022188	1
0	673	0.000230256	0
0	717	0.00024588	1
0	743	0.000254256	0
0	794	0.00026988	1
0	820	0.000278256	0
0	871	0.00029388	1
0	898	0.000302256	0
0	942	0.00031788	1
0	962	0.000326256	0
0	1006	0.00034188	1
0	1026	0.000350256	0
0	1070	0.00036588	1
0	1090	0.000374256	0
0	1134	0.00038988	1
0	1154	0.000398256	0
0	1198	0.00041388	1
0	1218	0.000422256	0
0	1262	0.00043788	1
0	1282	0.000446256	0
0	1326	0.00046188	1
0	1346	0.000470256	0
0	1390	0.00048588	1
0	1410	0.000494256	0
0	1454	0.00050988	1
0	1474	0.000518256	0
0	1518	0.00053388	1
0	1538	0.000542256	0
0	1582	0.00055788	1
0	1602	0.000566256	0
0	1646	0.00058188	1
0	1666	0.000590256	0
0	1710	0.00060588	1
0	1730	0.000614256	0
0	1774	0.00062988	1
0	1794	0.000638256	0
0	1838	0.00065388	1
0	1858	0.000662256	0
0	1902	0.00067788	1
0	1922	0.000686256	0
0	1966	0.00070188	1
0	1986	0.000710256	0
0	2030	0.00072588	1
0	2050	0.000734256	0
0	2094	0.00074988	1
0	2114	0.000758256	0
0	2158	0.00077388	1
0	2178	0.000782256	0
0	2222	0.00079788	1
0	2242	0.000806256	0
1	0	0	0
1	35	0	1
1	44	0.000008376	0
1	44	0.000008376	1
1	46	0.000016752	0
1	46	0.000016752	1
1	54	0.000025128	0
1	54	0.000025128	1
1	63	0.000033504	0
1	63	0.000033504	1
1	79	0.00004188	0
1	79	0.00004188	1
1	99	0.000050256	0
1	99	0.000050256	1
1	126	0.000058632	0
1	126	0.000058632	1
1	149	0.000067008	0
1	230	0.00008988	1
1	257	0.000098256	0
1	305	0.00011388	1
1	332	0.000122256	0
1	384	0.00013788	1
1	411	0.000146256	0
1	456	0.00016188	1
1	483	0.000170256	0
1	533	0.00018588	1
1	559	0.000194256	0
1	609	0.00020988	1
1	635	0.000218256	0
1	685	0.00023388	1
1	711	0.000242256	0
1	759	0.00025788	1
1	785	0.000266256	0
1	835	0.00028188	1
1	862	0.000290256	0
1	903	0.00030588	1
1	930	0.000314256	0
1	974	0.00032988	1
1	994	0.000338256	0
1	1038	0.00035388	1
1	1058	0.000362256	0
1	1102	0.00037788	1
1	1122	0.000386256	0
1	1166	0.00040188	1
1	1186	0.000410256	0
1	1230	0.00042588	1
1	1250	0.000434256	0
1	1294	0.00044988	1
1	1314	0.000458256	0
1	1358	0.00047388	1
1	1378	0.000482256	0
1	1422	0.00049788	1
1	1442	0.000506256	0
1	1486	0.00052188	1
1	1506	0.000530256	0
1	1550	0.00054588	1
1	1570	0.000554256	0
1	1614	0.00056988	1
1	1634	0.000578256	0
1	1678	0.00059388	1
1	1698	0.000602256	0
1	1742	0.00061788	1
1	1762	0.000626256	0
1	1806	0.00064188	1
1	1826	0.000650256	0
1	1870	0.00066588	1
1	1890	0.000674256	0
1	1934	0.00068988	1
1	1954	0.000698256	0
1	1998	0.00071388	1
1	2018	0.000722256	0
1	2062	0.00073788	1
1	2082	0.000746256	0
1	2126	0.00076188	1
1	2146	0.000770256	0
1	2190	0.00078588	1
1	2210	0.000794256	0
2	0	0	0
2	76	0.000036752	1
2	77	0.000037128	0
2	92	0.000045128	1
2	93	0.000045504	0
2	112	0.000053504	1
2	113	0.00005388	0
2	120	0.000057128	1
2	122	0.000057504	0
2	139	0.00006188	1
2	140	0.000062256	0
2	163	0.000069128	1
2	164	0.000069504	0
2	170	0.000070256	1
2	171	0.000070632	0
2	196	0.000078632	1
2	197	0.000079008	0
2	208	0.000081128	1
2	209	0.000081504	0
2	220	0.000087008	1
2	221	0.000087384	0
2	240	0.000093128	1
2	241	0.000093504	0
2	248	0.000095384	1
2	249	0.00009576	0
2	275	0.00010376	1
2	277	0.000104136	0
2	280	0.000105128	1
2	281	0.000105504	0
2	299	0.000112136	1
2	300	0.000112512	0
2	319	0.000117128	1
2	320	0.000117504	0
2	330	0.000120512	1
2	331	0.000120888	0
2	355	0.000128888	1
2	359	0.000129264	0
2	359	0.000129264	1
2	360	0.00012964	0
2	378	0.000137264	1
2	379	0.00013764	0
2	395	0.000141128	1
2	399	0.000141504	0
2	409	0.00014564	1
2	410	0.000146016	0
2	431	0.000153128	1
2	432	0.000153504	0
2	438	0.000154016	1
2	439	0.000154392	0
2	462	0.000162392	1
2	463	0.000162768	0
2	474	0.000165128	1
2	475	0.000165504	0
2	489	0.000170768	1
2	490	0.000171144	0
2	509	0.000177128	1
2	510	0.000177504	0
2	516	0.000179144	1
2	517	0.00017952	0
2	542	0.00018752	1
2	544	0.000187896	0
2	547	0.000189128	1
2	548	0.000189504	0
2	565	0.000195896	1
2	566	0.000196272	0
2	585	0.000201128	1
2	586	0.000201504	0
2	595	0.000204272	1
2	596	0.000204648	0
2	619	0.000212648	1
2	620	0.000213024	0
2	623	0.000213128	1
2	624	0.000213504	0
2	641	0.000221024	1
2	642	0.0002214	0
2	661	0.000225128	1
2	662	0.000225504	0
2	671	0.0002294	1
2	672	0.000229776	0
2	693	0.000237128	1
2	694	0.000237504	0
2	699	0.000237776	1
2	700	0.000238152	0
2	722	0.000246152	1
2	723	0.000246528	0
2	734	0.000249128	1
2	735	0.000249504	0
2	749	0.000254528	1
2	750	0.000254904	0
2	769	0.000261128	1
2	771	0.000261504	0
2	776	0.000262904	1
2	777	0.00026328	0
2	799	0.00027128	1
2	803	0.000271656	0
2	807	0.000273128	1
2	811	0.000273504	0
2	826	0.000279656	1
2	827	0.000280032	0
2	846	0.000285128	1
2	847	0.000285504	0
2	854	0.000288032	1
2	858	0.000288408	0
2	881	0.000296408	1
2	883	0.000296784	0
2	886	0.000297128	1
2	887	0.000297504	0
2	909	0.000306632	1
2	913	0.000307008	0
2	925	0.000309128	1
2	926	0.000309504	0
2	948	0.000318632	1
2	949	0.000319008	0
2	957	0.000321128	1
2	958	0.000321504	0
2	980	0.000330632	1
2	981	0.000331008	0
2	989	0.000333128	1
2	990	0.000333504	0
2	1012	0.000342632	1
2	1013	0.000343008	0
2	1021	0.000345128	1
2	1022	0.000345504	0
2	1044	0.000354632	1
2	1045	0.000355008	0
2	1053	0.000357128	1
2	1054	0.000357504	0
2	1076	0.000366632	1
2	1077	0.000367008	0
2	1085	0.000369128	1
2	1086	0.000369504	0
2	1108	0.000378632	1
2	1109	0.000379008	0
2	1117	0.000381128	1
2	1118	0.000381504	0
2	1140	0.000390632	1
2	1141	0.000391008	0
2	1149	0.000393128	1
2	1150	0.000393504	0
2	1172	0.000402632	1
2	1173	0.000403008	0
2	1181	0.000405128	1
2	1182	0.000405504	0
2	1204	0.000414632	1
2	1205	0.000415008	0
2	1213	0.000417128	1
2	1214	0.000417504	0
2	1236	0.000426632	1
2	1237	0.000427008	0
2	1245	0.000429128	1
2	1246	0.000429504	0
2	1268	0.000438632	1
2	1269	0.000439008	0
2	1277	0.000441128	1
2	1278	0.000441504	0
2	1300	0.000450632	1
2	1301	0.000451008	0
2	1309	0.000453128	1
2	1310	0.000453504	0
2	1332	0.000462632	1
2	1333	0.000463008	0
2	1341	0.000465128	1
2	1342	0.000465504	0
2	1364	0.000474632	1
2	1365	0.000475008	0
2	1373	0.000477128	1
2	1374	0.000477504	0
2	1396	0.000486632	1
2	1397	0.000487008	0
2	1405	0.000489128	1
2	1406	0.000489504	0
2	1428	0.000498632	1
2	1429	0.000499008	0
2	1437	0.000501128	1
2	1438	0.000501504	0
2	1460	0.000510632	1
2	1461	0.000511008	0
2	1469	0.000513128	1
2	1470	0.000513504	0
2	1492	0.000522632	1
2	1493	0.000523008	0
2	1501	0.000525128	1
2	1502	0.000525504	0
2	1524	0.000534632	1
2	1525	0.000535008	0
2	1533	0.000537128	1
2	1534	0.000537504	0
2	1556	0.000546632	1
2	1557	0.000547008	0
2	1565	0.000549128	1
2	1566	0.000549504	0
2	1588	0.000558632	1
2	1589	0.000559008	0
2	1597	0.000561128	1
2	1598	0.000561504	0
2	1620	0.000570632	1
2	1621	0.000571008	0
2	1629	0.000573128	1
2	1630	0.000573504	0
2	1652	0.000582632	1
2	1653	0.000583008	0
2	1661	0.000585128	1
2	1662	0.000585504	0
2	1684	0.000594632	1
2	1685	0.000595008	0
2	1693	0.000597128	1
2	1694	0.000597504	0
2	1716	0.000606632	1
2	1717	0.000607008	0
2	1725	0.000609128	1
2	1726	0.000609504	0
2	1748	0.000618632	1
2	1749	0.000619008	0
2	1757	0.000621128	1
2	1758	0.000621504	0
2	1780	0.000630632	1
2	1781	0.000631008	0
2	1789	0.000633128	1
2	1790	0.000633504	0
2	1812	0.000642632	1
2	1813	0.000643008	0
2	1821	0.000645128	1
2	1822	0.000645504	0
2	1844	0.000654632	1
2	1845	0.000655008	0
2	1853	0.000657128	1
2	1854	0.000657504	0
2	1876	0.000666632	1
2	1877	0.000667008	0
2	1885	0.000669128	1
2	1886	0.000669504	0
2	1908	0.000678632	1
2	1909	0.000679008	0
2	1917	0.000681128	1
2	1918	0.000681504	0
2	1940	0.000690632	1
2	1941	0.000691008	0
2	1949	0.000693128	1
2	1950	0.000693504	0
2	1972	0.000702632	1
2	1973	0.000703008	0
2	1981	0.000705128	1
2	1982	0.000705504	0
2	2004	0.000714632	1
2	2005	0.000715008	0
2	2013	0.000717128	1
2	2014	0.000717504	0
2	2036	0.000726632	1
2	2037	0.000727008	0
2	2045	0.000729128	1
2	2046	0.000729504	0
2	2068	0.000738632	1
2	2069	0.000739008	0
2	2077	0.000741128	1
2	2078	0.000741504	0
2	2100	0.000750632	1
2	2101	0.000751008	0
2	2109	0.000753128	1
2	2110	0.000753504	0
2	2132	0.000762632	1
2	2133	0.000763008	0
2	2141	0.000765128	1
2	2142	0.000765504	0
2	2164	0.000774632	1
2	2165	0.000775008	0
2	2173	0.000777128	1
2	2174	0.000777504	0
2	2196	0.000786632	1
2	2197	0.000787008	0
2	2205	0.000789128	1
2	2206	0.000789504	0
2	2228	0.000798632	1
2	2229	0.000799008	0
2	2237	0.000801128	1
2	2238	0.000801504	0
3	0	0	0
3	51	0.000018376	1
3	57	0.000026752	0
3	57	0.000026752	1
3	66	0.000035128	0
3	66	0.000035128	1
3	82	0.000043504	0
3	82	0.000043504	1
3	102	0.00005188	0
3	102	0.00005188	1
3	129	0.000060256	0
3	129	0.000060256	1
3	156	0.000068632	0
3	156	0.000068632	1
3	181	0.000077008	0
3	181	0.000077008	1
3	213	0.000085384	0
3	213	0.000085384	1
3	242	0.00009376	0
3	242	0.00009376	1
3	266	0.000102136	0
3	266	0.000102136	1
3	293	0.000110512	0
3	293	0.000110512	1
3	321	0.000118888	0
3	321	0.000118888	1
3	345	0.000127264	0
3	345	0.000127264	1
3	372	0.00013564	0
3	372	0.00013564	1
3	400	0.000144016	0
3	400	0.000144016	1
3	428	0.000152392	0
3	428	0.000152392	1
3	451	0.000160768	0
3	451	0.000160768	1
3	482	0.000169144	0
3	482	0.000169144	1
3	511	0.00017752	0
3	511	0.00017752	1
3	534	0.000185896	0
3	534	0.000185896	1
3	560	0.000194272	0
3	560	0.000194272	1
3	587	0.000202648	0
3	587	0.000202648	1
3	610	0.000211024	0
3	610	0.000211024	1
3	636	0.0002194	0
3	636	0.0002194	1
3	663	0.000227776	0
3	663	0.000227776	1
3	690	0.000236152	0
3	690	0.000236152	1
3	712	0.000244528	0
3	712	0.000244528	1
3	742	0.000252904	0
3	742	0.000252904	1
3	770	0.00026128	0
3	770	0.00026128	1
3	789	0.000269656	0
3	789	0.000269656	1
3	819	0.000278032	0
3	819	0.000278032	1
3	848	0.000286408	0
3	857	0.000288256	1
3	882	0.000296632	0
3	894	0.000300256	1
3	919	0.000308632	0
3	929	0.000312256	1
3	954	0.000320632	0
3	961	0.000324256	1
3	986	0.000332632	0
3	993	0.000336256	1
3	1018	0.000344632	0
3	1025	0.000348256	1
3	1050	0.000356632	0
3	1057	0.000360256	1
3	1082	0.000368632	0
3	1089	0.000372256	1
3	1114	0.000380632	0
3	1121	0.000384256	1
3	1146	0.000392632	0
3	1153	0.000396256	1
3	1178	0.000404632	0
3	1185	0.000408256	1
3	1210	0.000416632	0
3	1217	0.000420256	1
3	1242	0.000428632	0
3	1249	0.000432256	1
3	1274	0.000440632	0
3	1281	0.000444256	1
3	1306	0.000452632	0
3	1313	0.000456256	1
3	1338	0.000464632	0
3	1345	0.000468256	1
3	1370	0.000476632	0
3	1377	0.000480256	1
3	1402	0.000488632	0
3	1409	0.000492256	1
3	1434	0.000500632	0
3	1441	0.000504256	1
3	1466	0.000512632	0
3	1473	0.000516256	1
3	1498	0.000524632	0
3	1505	0.000528256	1
3	1530	0.000536632	0
3	1537	0.000540256	1
3	1562	0.000548632	0
3	1569	0.000552256	1
3	1594	0.000560632	0
3	1601	0.000564256	1
3	1626	0.000572632	0
3	1633	0.000576256	1
3	1658	0.000584632	0
3	1665	0.000588256	1
3	1690	0.000596632	0
3	1697	0.000600256	1
3	1722	0.000608632	0
3	1729	0.000612256	1
3	1754	0.000620632	0
3	1761	0.000624256	1
3	1786	0.000632632	0
3	1793	0.000636256	1
3	1818	0.000644632	0
3	1825	0.000648256	1
3	1850	0.000656632	0
3	1857	0.000660256	1
3	1882	0.000668632	0
3	1889	0.000672256	1
3	1914	0.000680632	0
3	1921	0.000684256	1
3	1946	0.000692632	0
3	1953	0.000696256	1
3	1978	0.000704632	0
3	1985	0.000708256	1
3	2010	0.000716632	0
3	2017	0.000720256	1
3	2042	0.000728632	0
3	2049	0.000732256	1
3	2074	0.000740632	0
3	2081	0.000744256	1
3	2106	0.000752632	0
3	2113	0.000756256	1
3	2138	0.000764632	0
3	2145	0.000768256	1
3	2170	0.000776632	0
3	2177	0.000780256	1
3	2202	0.000788632	0
3	2209	0.000792256	1
3	2234	0.000800632	0
3	2241	0.000804256	1
4	0	0	0
4	96	0.000047128	1
4	97	0.000047504	0
4	143	0.00006388	1
4	144	0.000064256	0
4	152	0.000067504	1
4	153	0.00006788	0
4	204	0.000080632	1
4	205	0.000081008	0
4	236	0.000091504	1
4	237	0.00009188	0
4	255	0.000097384	1
4	256	0.00009776	0
4	308	0.000114136	1
4	309	0.000114512	0
4	312	0.000115504	1
4	313	0.00011588	0
4	363	0.000130888	1
4	364	0.000131264	0
4	391	0.00013964	1
4	392	0.000140016	0
4	414	0.00014764	1
4	415	0.000148016	0
4	466	0.000163504	1
4	467	0.00016388	0
4	470	0.000164392	1
4	471	0.000164768	0
4	523	0.000181144	1
4	524	0.00018152	0
4	537	0.000187504	1
4	543	0.00018788	0
4	574	0.000197896	1
4	575	0.000198272	0
4	613	0.000211504	1
4	614	0.00021188	0
4	627	0.000214648	1
4	628	0.000215024	0
4	650	0.000223024	1
4	651	0.0002234	0
4	688	0.000235504	1
4	689	0.00023588	0
4	703	0.000239776	1
4	704	0.000240152	0
4	753	0.000256528	1
4	754	0.000256904	0
4	765	0.000259504	1
4	766	0.00025988	0
4	839	0.000283504	1
4	843	0.00028388	0
4	861	0.000290032	1
4	863	0.000290408	0
4	890	0.000298408	1
4	891	0.000298784	0
4	917	0.000307504	1
4	918	0.00030788	0
4	933	0.000317008	1
4	937	0.000317384	0
4	984	0.000331504	1
4	985	0.00033188	0
4	1000	0.000341008	1
4	1001	0.000341384	0
4	1048	0.000355504	1
4	1049	0.00035588	0
4	1064	0.000365008	1
4	1065	0.000365384	0
4	1112	0.000379504	1
4	1113	0.00037988	0
4	1128	0.000389008	1
4	1129	0.000389384	0
4	1176	0.000403504	1
4	1177	0.00040388	0
4	1192	0.000413008	1
4	1193	0.000413384	0
4	1240	0.000427504	1
4	1241	0.00042788	0
4	1256	0.000437008	1
4	1257	0.000437384	0
4	1304	0.000451504	1
4	1305	0.00045188	0
4	1320	0.000461008	1
4	1321	0.000461384	0
4	1368	0.000475504	1
4	1369	0.00047588	0
4	1384	0.000485008	1
4	1385	0.000485384	0
4	1432	0.000499504	1
4	1433	0.00049988	0
4	1448	0.000509008	1
4	1449	0.000509384	0
4	1496	0.000523504	1
4	1497	0.00052388	0
4	1512	0.000533008	1
4	1513	0.000533384	0
4	1560	0.000547504	1
4	1561	0.00054788	0
4	1576	0.000557008	1
4	1577	0.000557384	0
4	1624	0.000571504	1
4	1625	0.00057188	0
4	1640	0.000581008	1
4	1641	0.000581384	0
4	1688	0.000595504	1
4	1689	0.00059588	0
4	1704	0.000605008	1
4	1705	0.000605384	0
4	1752	0.000619504	1
4	1753	0.00061988	0
4	1768	0.000629008	1
4	1769	0.000629384	0
4	1816	0.000643504	1
4	1817	0.00064388	0
4	1832	0.000653008	1
4	1833	0.000653384	0
4	1880	0.000667504	1
4	1881	0.00066788	0
4	1896	0.000677008	1
4	1897	0.000677384	0
4	1944	0.000691504	1
4	1945	0.00069188	0
4	1960	0.000701008	1
4	1961	0.000701384	0
4	2008	0.000715504	1
4	2009	0.00071588	0
4	2024	0.000725008	1
4	2025	0.000725384	0
4	2072	0.000739504	1
4	2073	0.00073988	0
4	2088	0.000749008	1
4	2089	0.000749384	0
4	2136	0.000763504	1
4	2137	0.00076388	0
4	2152	0.000773008	1
4	2153	0.000773384	0
4	2200	0.000787504	1
4	2201	0.00078788	0
4	2216	0.000797008	1
4	2217	0.000797384	0
5	0	0	0
5	116	0.000055504	1
5	117	0.00005588	0
5	174	0.000072256	1
5	175	0.000072632	0
5	200	0.000079504	1
5	201	0.00007988	0
5	224	0.000089008	1
5	225	0.000089384	0
5	269	0.000103504	1
5	276	0.00010388	0
5	284	0.00010576	1
5	285	0.000106136	0
5	335	0.000122512	1
5	336	0.000122888	0
5	348	0.000127504	1
5	349	0.00012788	0
5	387	0.000139264	1
5	389	0.00013964	0
5	426	0.000151504	1
5	427	0.00015188	0
5	442	0.000156016	1
5	446	0.000156392	0
5	493	0.000172768	1
5	494	0.000173144	0
5	505	0.000175504	1
5	506	0.00017588	0
5	551	0.00018952	1
5	552	0.000189896	0
5	578	0.000199504	1
5	579	0.00019988	0
5	600	0.000206272	1
5	601	0.000206648	0
5	654	0.000223504	1
5	655	0.00022388	0
5	676	0.0002314	1
5	677	0.000231776	0
5	726	0.000247504	1
5	727	0.00024788	0
5	730	0.000248152	1
5	731	0.000248528	0
5	783	0.000264904	1
5	784	0.00026528	0
5	802	0.000271504	1
5	804	0.00027188	0
5	810	0.00027328	1
5	812	0.000273656	0
5	830	0.000281656	1
5	836	0.000282032	0
5	874	0.000295504	1
5	875	0.00029588	0
5	912	0.000306784	1
5	914	0.00030716	0
5	952	0.000319504	1
5	953	0.00031988	0
5	968	0.000329008	1
5	969	0.000329384	0
5	1016	0.000343504	1
5	1017	0.00034388	0
5	1032	0.000353008	1
5	1033	0.000353384	0
5	1080	0.000367504	1
5	1081	0.00036788	0
5	1096	0.000377008	1
5	1097	0.000377384	0
5	1144	0.000391504	1
5	1145	0.00039188	0
5	1160	0.000401008	1
5	1161	0.000401384	0
5	1208	0.000415504	1
5	1209	0.00041588	0
5	1224	0.000425008	1
5	1225	0.000425384	0
5	1272	0.000439504	1
5	1273	0.00043988	0
5	1288	0.000449008	1
5	1289	0.000449384	0
5	1336	0.000463504	1
5	1337	0.00046388	0
5	1352	0.000473008	1
5	1353	0.000473384	0
5	1400	0.000487504	1
5	1401	0.00048788	0
5	1416	0.000497008	1
5	1417	0.000497384	0
5	1464	0.000511504	1
5	1465	0.00051188	0
5	1480	0.000521008	1
5	1481	0.000521384	0
5	1528	0.000535504	1
5	1529	0.00053588	0
5	1544	0.000545008	1
5	1545	0.000545384	0
5	1592	0.000559504	1
5	1593	0.00055988	0
5	1608	0.000569008	1
5	1609	0.000569384	0
5	1656	0.000583504	1
5	1657	0.00058388	0
5	1672	0.000593008	1
5	1673	0.000593384	0
5	1720	0.000607504	1
5	1721	0.00060788	0
5	1736	0.000617008	1
5	1737	0.000617384	0
5	1784	0.000631504	1
5	1785	0.00063188	0
5	1800	0.000641008	1
5	1801	0.000641384	0
5	1848	0.000655504	1
5	1849	0.00065588	0
5	1864	0.000665008	1
5	1865	0.000665384	0
5	1912	0.000679504	1
5	1913	0.00067988	0
5	1928	0.000689008	1
5	1929	0.000689384	0
5	1976	0.000703504	1
5	1977	0.00070388	0
5	1992	0.000713008	1
5	1993	0.000713384	0
5	2040	0.000727504	1
5	2041	0.00072788	0
5	2056	0.000737008	1
5	2057	0.000737384	0
5	2104	0.000751504	1
5	2105	0.00075188	0
5	2120	0.000761008	1
5	2121	0.000761384	0
5	2168	0.000775504	1
5	2169	0.00077588	0
5	2184	0.000785008	1
5	2185	0.000785384	0
5	2232	0.000799504	1
5	2233	0.00079988	0
6	27	0	1040
6	28	0	1040
6	29	0	1040
6	30	0	1040
6	31	0	1040
6	32	0	1040
6	33	0	1040
6	34	0	1040
6	190	0.00007788	1040
6	265	0.00010188	1040
6	344	0.00012588	1040
6	423	0.000150016	1040
6	499	0.00017388	1040
6	571	0.00019788	1040
6	647	0.00022188	1040
6	717	0.00024588	1040
6	794	0.00026988	1040
6	871	0.00029388	1040
6	942	0.00031788	1040
6	1006	0.00034188	1040
6	1070	0.00036588	1040
6	1134	0.00038988	1040
6	1198	0.00041388	1040
6	1262	0.00043788	1040
6	1326	0.00046188	1040
6	1390	0.00048588	1040
6	1454	0.00050988	1040
6	1518	0.00053388	1040
6	1582	0.00055788	1040
6	1646	0.00058188	1040
6	1710	0.00060588	1040
6	1774	0.00062988	1040
6	1838	0.00065388	1040
6	1902	0.00067788	1040
6	1966	0.00070188	1040
6	2030	0.00072588	1040
6	2094	0.00074988	1040
6	2158	0.00077388	1040
6	2222	0.00079788	1040
7	27	0	1040
7	28	0	1040
7	29	0	1040
7	30	0	1040
7	31	0	1040
7	32	0	1040
7	33	0	1040
7	34	0	1040
7	190	0.00007788	1040
7	265	0.00010188	1040
7	344	0.00012588	1040
7	423	0.000150016	1040
7	499	0.00017388	1040
7	571	0.00019788	1040
7	647	0.00022188	1040
7	717	0.00024588	1040
7	794	0.00026988	1040
7	871	0.00029388	1040
7	942	0.00031788	1040
7	1006	0.00034188	1040
7	1070	0.00036588	1040
7	1134	0.00038988	1040
7	1198	0.00041388	1040
7	1262	0.00043788	1040
7	1326	0.00046188	1040
7	1390	0.00048588	1040
7	1454	0.00050988	1040
7	1518	0.00053388	1040
7	1582	0.00055788	1040
7	1646	0.00058188	1040
7	1710	0.00060588	1040
7	1774	0.00062988	1040
7	1838	0.00065388	1040
7	1902	0.00067788	1040
7	1966	0.00070188	1040
7	2030	0.00072588	1040
7	2094	0.00074988	1040
7	2158	0.00077388	1040
7	2222	0.00079788	1040
8	27	0	1
8	27	0	0
8	28	0	1
8	29	0	2
8	30	0	3
8	31	0	4
8	32	0	5
8	33	0	6
8	34	0	7
8	43	0.000008376	6
8	45	0.000016752	5
8	53	0.000025128	4
8	62	0.000033504	3
8	78	0.00004188	2
8	98	0.000050256	1
8	125	0.000058632	0
8	190	0.00007788	1
8	190	0.00007788	0
8	265	0.00010188	1
8	265	0.00010188	0
8	344	0.00012588	1
8	344	0.00012588	0
8	423	0.000150016	1
8	423	0.000150016	0
8	499	0.00017388	1
8	499	0.00017388	0
8	571	0.00019788	1
8	571	0.00019788	0
8	647	0.00022188	1
8	647	0.00022188	0
8	717	0.00024588	1
8	717	0.00024588	0
8	794	0.00026988	1
8	794	0.00026988	0
8	871	0.00029388	1
8	871	0.00029388	0
8	942	0.00031788	1
8	942	0.00031788	0
8	1006	0.00034188	1
8	1006	0.00034188	0
8	1070	0.00036588	1
8	1070	0.00036588	0
8	1134	0.00038988	1
8	1134	0.00038988	0
8	1198	0.00041388	1
8	1198	0.00041388	0
8	1262	0.00043788	1
8	1262	0.00043788	0
8	1326	0.00046188	1
8	1326	0.00046188	0
8	1390	0.00048588	1
8	1390	0.00048588	0
8	1454	0.00050988	1
8	1454	0.00050988	0
8	1518	0.00053388	1
8	1518	0.00053388	0
8	1582	0.00055788	1
8	1582	0.00055788	0
8	1646	0.00058188	1
8	1646	0.00058188	0
8	1710	0.00060588	1
8	1710	0.00060588	0
8	1774	0.00062988	1
8	1774	0.00062988	0
8	1838	0.00065388	1
8	1838	0.00065388	0
8	1902	0.00067788	1
8	1902	0.00067788	0
8	1966	0.00070188	1
8	1966	0.00070188	0
8	2030	0.00072588	1
8	2030	0.00072588	0
8	2094	0.00074988	1
8	2094	0.00074988	0
8	2158	0.00077388	1
8	2158	0.00077388	0
8	2222	0.00079788	1
8	2222	0.00079788	0
9	27	0	1040
9	43	0.000008376	1040
9	45	0.000016752	1040
9	53	0.000025128	1040
9	62	0.000033504	1040
9	78	0.00004188	1040
9	98	0.000050256	1040
9	125	0.000058632	1040
9	190	0.00007788	1040
9	265	0.00010188	1040
9	344	0.00012588	1040
9	423	0.000150016	1040
9	499	0.00017388	1040
9	571	0.00019788	1040
9	647	0.00022188	1040
9	717	0.00024588	1040
9	794	0.00026988	1040
9	871	0.00029388	1040
9	942	0.00031788	1040
9	1006	0.00034188	1040
9	1070	0.00036588	1040
9	1134	0.00038988	1040
9	1198	0.00041388	1040
9	1262	0.00043788	1040
9	1326	0.00046188	1040
9	1390	0.00048588	1040
9	1454	0.00050988	1040
9	1518	0.00053388	1040
9	1582	0.00055788	1040
9	1646	0.00058188	1040
9	1710	0.00060588	1040
9	1774	0.00062988	1040
9	1838	0.00065388	1040
9	1902	0.00067788	1040
9	1966	0.00070188	1040
9	2030	0.00072588	1040
9	2094	0.00074988	1040
9	2158	0.00077388	1040
9	2222	0.00079788	1040
10	27	0	0
10	43	0.000008376	8.376e-06
10	45	0.000016752	1.6752e-05
10	53	0.000025128	2.5128e-05
10	62	0.000033504	3.3504e-05
10	78	0.00004188	4.188e-05
10	98	0.000050256	5.0256e-05
10	125	0.000058632	5.8632e-05
10	190	0.00007788	0
10	265	0.00010188	0
10	344	0.00012588	0
10	423	0.000150016	0
10	499	0.00017388	0
10	571	0.00019788	0
10	647	0.00022188	0
10	717	0.00024588	0
10	794	0.00026988	0
10	871	0.00029388	0
10	942	0.00031788	0
10	1006	0.00034188	0
10	1070	0.00036588	0
10	1134	0.00038988	0
10	1198	0.00041388	0
10	1262	0.00043788	0
10	1326	0.00046188	0
10	1390	0.00048588	0
10	1454	0.00050988	0
10	1518	0.00053388	0
10	1582	0.00055788	0
10	1646	0.00058188	0
10	1710	0.00060588	0
10	1774	0.00062988	0
10	1838	0.00065388	0
10	1902	0.00067788	0
10	1966	0.00070188	0
10	2030	0.00072588	0
10	2094	0.00074988	0
10	2158	0.00077388	0
10	2222	0.00079788	0
11	27	0	1047
11	43	0.000008376	1047
11	45	0.000016752	1047
11	53	0.000025128	1047
11	62	0.000033504	1047
11	78	0.00004188	1047
11	98	0.000050256	1047
11	125	0.000058632	1047
11	190	0.00007788	1047
11	265	0.00010188	1047
11	344	0.00012588	1047
11	423	0.000150016	1047
11	499	0.00017388	1047
11	571	0.00019788	1047
11	647	0.00022188	1047
11	717	0.00024588	1047
11	794	0.00026988	1047
11	871	0.00029388	1047
11	942	0.00031788	1047
11	1006	0.00034188	1047
11	1070	0.00036588	1047
11	1134	0.00038988	1047
11	1198	0.00041388	1047
11	1262	0.00043788	1047
11	1326	0.00046188	1047
11	1390	0.00048588	1047
11	1454	0.00050988	1047
11	1518	0.00053388	1047
11	1582	0.00055788	1047
11	1646	0.00058188	1047
11	1710	0.00060588	1047
11	1774	0.00062988	1047
11	1838	0.00065388	1047
11	1902	0.00067788	1047
11	1966	0.00070188	1047
11	2030	0.00072588	1047
11	2094	0.00074988	1047
11	2158	0.00077388	1047
11	2222	0.00079788	1047
12	35	0	1040
12	36	0	1040
12	37	0	1040
12	38	0	1040
12	39	0	1040
12	40	0	1040
12	41	0	1040
12	42	0	1040
12	230	0.00008988	1040
12	305	0.00011388	1040
12	384	0.00013788	1040
12	456	0.00016188	1040
12	533	0.00018588	1040
12	609	0.00020988	1040
12	685	0.00023388	1040
12	759	0.00025788	1040
12	835	0.00028188	1040
12	903	0.00030588	1040
12	974	0.00032988	1040
12	1038	0.00035388	1040
12	1102	0.00037788	1040
12	1166	0.00040188	1040
12	1230	0.00042588	1040
12	1294	0.00044988	1040
12	1358	0.00047388	1040
12	1422	0.00049788	1040
12	1486	0.00052188	1040
12	1550	0.00054588	1040
12	1614	0.00056988	1040
12	1678	0.00059388	1040
12	1742	0.00061788	1040
12	1806	0.00064188	1040
12	1870	0.00066588	1040
12	1934	0.00068988	1040
12	1998	0.00071388	1040
12	2062	0.00073788	1040
12	2126	0.00076188	1040
12	2190	0.00078588	1040
13	35	0	1040
13	36	0	1040
13	37	0	1040
13	38	0	1040
13	39	0	1040
13	40	0	1040
13	41	0	1040
13	42	0	1040
13	230	0.00008988	1040
13	305	0.00011388	1040
13	384	0.00013788	1040
13	456	0.00016188	1040
13	533	0.00018588	1040
13	609	0.00020988	1040
13	685	0.00023388	1040
13	759	0.00025788	1040
13	835	0.00028188	1040
13	903	0.00030588	1040
13	974	0.00032988	1040
13	1038	0.00035388	1040
13	1102	0.00037788	1040
13	1166	0.00040188	1040
13	1230	0.00042588	1040
13	1294	0.00044988	1040
13	1358	0.00047388	1040
13	1422	0.00049788	1040
13	1486	0.00052188	1040
13	1550	0.00054588	1040
13	1614	0.00056988	1040
13	1678	0.00059388	1040
13	1742	0.00061788	1040
13	1806	0.00064188	1040
13	1870	0.00066588	1040
13	1934	0.00068988	1040
13	1998	0.00071388	1040
13	2062	0.00073788	1040
13	2126	0.00076188	1040
13	2190	0.00078588	1040
14	35	0	1
14	35	0	0
14	36	0	1
14	37	0	2
14	38	0	3
14	39	0	4
14	40	0	5
14	41	0	6
14	42	0	7
14	44	0.000008376	6
14	46	0.000016752	5
14	54	0.000025128	4
14	63	0.000033504	3
14	79	0.00004188	2
14	99	0.000050256	1
14	126	0.000058632	0
14	230	0.00008988	1
14	230	0.00008988	0
14	305	0.00011388	1
14	305	0.00011388	0
14	384	0.00013788	1
14	384	0.00013788	0
14	456	0.00016188	1
14	456	0.00016188	0
14	533	0.00018588	1
14	533	0.00018588	0
14	609	0.00020988	1
14	609	0.00020988	0
14	685	0.00023388	1
14	685	0.00023388	0
14	759	0.00025788	1
14	759	0.00025788	0
14	835	0.00028188	1
14	835	0.00028188	0
14	903	0.00030588	1
14	903	0.00030588	0
14	974	0.00032988	1
14	974	0.00032988	0
14	1038	0.00035388	1
14	1038	0.00035388	0
14	1102	0.00037788	1
14	1102	0.00037788	0
14	1166	0.00040188	1
14	1166	0.00040188	0
14	1230	0.00042588	1
14	1230	0.00042588	0
14	1294	0.00044988	1
14	1294	0.00044988	0
14	1358	0.00047388	1
14	1358	0.00047388	0
14	1422	0.00049788	1
14	1422	0.00049788	0
14	1486	0.00052188	1
14	1486	0.00052188	0
14	1550	0.00054588	1
14	1550	0.00054588	0
14	1614	0.00056988	1
14	1614	0.00056988	0
14	1678	0.00059388	1
14	1678	0.00059388	0
14	1742	0.00061788	1
14	1742	0.00061788	0
14	1806	0.00064188	1
14	1806	0.00064188	0
14	1870	0.00066588	1
14	1870	0.00066588	0
14	1934	0.00068988	1
14	1934	0.00068988	0
14	1998	0.00071388	1
14	1998	0.00071388	0
14	2062	0.00073788	1
14	2062	0.00073788	0
14	2126	0.00076188	1
14	2126	0.00076188	0
14	2190	0.00078588	1
14	2190	0.00078588	0
15	35	0	1040
15	44	0.000008376	1040
15	46	0.000016752	1040
15	54	0.000025128	1040
15	63	0.000033504	1040
15	79	0.00004188	1040
15	99	0.000050256	1040
15	126	0.000058632	1040
15	230	0.00008988	1040
15	305	0.00011388	1040
15	384	0.00013788	1040
15	456	0.00016188	1040
15	533	0.00018588	1040
15	609	0.00020988	1040
15	685	0.00023388	1040
15	759	0.00025788	1040
15	835	0.00028188	1040
15	903	0.00030588	1040
15	974	0.00032988	1040
15	1038	0.00035388	1040
15	1102	0.00037788	1040
15	1166	0.00040188	1040
15	1230	0.00042588	1040
15	1294	0.00044988	1040
15	1358	0.00047388	1040
15	1422	0.00049788	1040
15	1486	0.00052188	1040
15	1550	0.00054588	1040
15	1614	0.00056988	1040
15	1678	0.00059388	1040
15	1742	0.00061788	1040
15	1806	0.00064188	1040
15	1870	0.00066588	1040
15	1934	0.00068988	1040
15	1998	0.00071388	1040
15	2062	0.00073788	1040
15	2126	0.00076188	1040
15	2190	0.00078588	1040
16	35	0	0
16	44	0.000008376	8.376e-06
16	46	0.000016752	1.6752e-05
16	54	0.000025128	2.5128e-05
16	63	0.000033504	3.3504e-05
16	79	0.00004188	4.188e-05
16	99	0.000050256	5.0256e-05
16	126	0.000058632	5.8632e-05
16	230	0.00008988	0
16	305	0.00011388	0
16	384	0.00013788	0
16	456	0.00016188	0
16	533	0.00018588	0
16	609	0.00020988	0
16	685	0.00023388	0
16	759	0.00025788	0
16	835	0.00028188	0
16	903	0.00030588	0
16	974	0.00032988	0
16	1038	0.00035388	0
16	1102	0.00037788	0
16	1166	0.00040188	0
16	1230	0.00042588	0
16	1294	0.00044988	0
16	1358	0.00047388	0
16	1422	0.00049788	0
16	1486	0.00052188	0
16	1550	0.00054588	0
16	1614	0.00056988	0
16	1678	0.00059388	0
16	1742	0.00061788	0
16	1806	0.00064188	0
16	1870	0.00066588	0
16	1934	0.00068988	0
16	1998	0.00071388	0
16	2062	0.00073788	0
16	2126	0.00076188	0
16	2190	0.00078588	0
17	35	0	1047
17	44	0.000008376	1047
17	46	0.000016752	1047
17	54	0.000025128	1047
17	63	0.000033504	1047
17	79	0.00004188	1047
17	99	0.000050256	1047
17	126	0.000058632	1047
17	230	0.00008988	1047
17	305	0.00011388	1047
17	384	0.00013788	1047
17	456	0.00016188	1047
17	533	0.00018588	1047
17	609	0.00020988	1047
17	685	0.00023388	1047
17	759	0.00025788	1047
17	835	0.00028188	1047
17	903	0.00030588	1047
17	974	0.00032988	1047
17	1038	0.00035388	1047
17	1102	0.00037788	1047
17	1166	0.00040188	1047
17	1230	0.00042588	1047
17	1294	0.00044988	1047
17	1358	0.00047388	1047
17	1422	0.00049788	1047
17	1486	0.00052188	1047
17	1550	0.00054588	1047
17	1614	0.00056988	1047
17	1678	0.00059388	1047
17	1742	0.00061788	1047
17	1806	0.00064188	1047
17	1870	0.00066588	1047
17	1934	0.00068988	1047
17	1998	0.00071388	1047
17	2062	0.00073788	1047
17	2126	0.00076188	1047
17	2190	0.00078588	1047
18	47	0.000018376	1047
18	55	0.000026752	1047
18	64	0.000035128	1047
18	80	0.000043504	1047
18	100	0.00005188	1047
18	127	0.000060256	1047
18	154	0.000068632	1047
18	179	0.000077008	1047
18	250	0.000096256	1047
18	322	0.000120256	1047
18	401	0.000144256	1047
18	479	0.000168392	1047
18	556	0.000192256	1047
18	629	0.000216256	1047
18	705	0.000240256	1047
18	778	0.000264256	1047
18	855	0.000288256	1047
18	927	0.000312256	1047
18	991	0.000336256	1047
18	1055	0.000360256	1047
18	1119	0.000384256	1047
18	1183	0.000408256	1047
18	1247	0.000432256	1047
18	1311	0.000456256	1047
18	1375	0.000480256	1047
18	1439	0.000504256	1047
18	1503	0.000528256	1047
18	1567	0.000552256	1047
18	1631	0.000576256	1047
18	1695	0.000600256	1047
18	1759	0.000624256	1047
18	1823	0.000648256	1047
18	1887	0.000672256	1047
18	1951	0.000696256	1047
18	2015	0.000720256	1047
18	2079	0.000744256	1047
18	2143	0.000768256	1047
18	2207	0.000792256	1047
19	47	0.000018376	1040
19	55	0.000026752	1040
19	64	0.000035128	1040
19	80	0.000043504	1040
19	100	0.00005188	1040
19	127	0.000060256	1040
19	154	0.000068632	1040
19	179	0.000077008	1040
19	250	0.000096256	1040
19	322	0.000120256	1040
19	401	0.000144256	1040
19	479	0.000168392	1040
19	556	0.000192256	1040
19	629	0.000216256	1040
19	705	0.000240256	1040
19	778	0.000264256	1040
19	855	0.000288256	1040
19	927	0.000312256	1040
19	991	0.000336256	1040
19	1055	0.000360256	1040
19	1119	0.000384256	1040
19	1183	0.000408256	1040
19	1247	0.000432256	1040
19	1311	0.000456256	1040
19	1375	0.000480256	1040
19	1439	0.000504256	1040
19	1503	0.000528256	1040
19	1567	0.000552256	1040
19	1631	0.000576256	1040
19	1695	0.000600256	1040
19	1759	0.000624256	1040
19	1823	0.000648256	1040
19	1887	0.000672256	1040
19	1951	0.000696256	1040
19	2015	0.000720256	1040
19	2079	0.000744256	1040
19	2143	0.000768256	1040
19	2207	0.000792256	1040
20	48	0.000018376	1047
20	56	0.000026752	1047
20	65	0.000035128	1047
20	81	0.000043504	1047
20	101	0.00005188	1047
20	128	0.000060256	1047
20	155	0.000068632	1047
20	180	0.000077008	1047
20	289	0.000108256	1047
20	365	0.000132256	1047
20	443	0.000156256	1047
20	518	0.000180256	1047
20	588	0.000204256	1047
20	664	0.000228256	1047
20	739	0.000252256	1047
20	816	0.000276256	1047
20	892	0.000300256	1047
20	959	0.000324256	1047
20	1023	0.000348256	1047
20	1087	0.000372256	1047
20	1151	0.000396256	1047
20	1215	0.000420256	1047
20	1279	0.000444256	1047
20	1343	0.000468256	1047
20	1407	0.000492256	1047
20	1471	0.000516256	1047
20	1535	0.000540256	1047
20	1599	0.000564256	1047
20	1663	0.000588256	1047
20	1727	0.000612256	1047
20	1791	0.000636256	1047
20	1855	0.000660256	1047
20	1919	0.000684256	1047
20	1983	0.000708256	1047
20	2047	0.000732256	1047
20	2111	0.000756256	1047
20	2175	0.000780256	1047
20	2239	0.000804256	1047
21	48	0.000018376	1040
21	56	0.000026752	1040
21	65	0.000035128	1040
21	81	0.000043504	1040
21	101	0.00005188	1040
21	128	0.000060256	1040
21	155	0.000068632	1040
21	180	0.000077008	1040
21	289	0.000108256	1040
21	365	0.000132256	1040
21	443	0.000156256	1040
21	518	0.000180256	1040
21	588	0.000204256	1040
21	664	0.000228256	1040
21	739	0.000252256	1040
21	816	0.000276256	1040
21	892	0.000300256	1040
21	959	0.000324256	1040
21	1023	0.000348256	1040
21	1087	0.000372256	1040
21	1151	0.000396256	1040
21	1215	0.000420256	1040
21	1279	0.000444256	1040
21	1343	0.000468256	1040
21	1407	0.000492256	1040
21	1471	0.000516256	1040
21	1535	0.000540256	1040
21	1599	0.000564256	1040
21	1663	0.000588256	1040
21	1727	0.000612256	1040
21	1791	0.000636256	1040
21	1855	0.000660256	1040
21	1919	0.000684256	1040
21	1983	0.000708256	1040
21	2047	0.000732256	1040
21	2111	0.000756256	1040
21	2175	0.000780256	1040
21	2239	0.000804256	1040
22	51	0.000018376	1040
22	52	0.000018376	1040
22	60	0.000026752	1040
22	61	0.000026752	1040
22	69	0.000035128	1040
22	70	0.000035128	1040
22	85	0.000043504	1040
22	86	0.000043504	1040
22	105	0.00005188	1040
22	106	0.00005188	1040
22	132	0.000060256	1040
22	133	0.000060256	1040
22	159	0.000068632	1040
22	160	0.000068632	1040
22	184	0.000077008	1040
22	185	0.000077008	1040
22	252	0.000096256	1040
22	291	0.000108256	1040
22	324	0.000120256	1040
22	367	0.000132256	1040
22	403	0.000144256	1040
22	445	0.000156256	1040
22	481	0.000168392	1040
22	520	0.000180256	1040
22	558	0.000192256	1040
22	590	0.000204256	1040
22	631	0.000216256	1040
22	666	0.000228256	1040
22	707	0.000240256	1040
22	741	0.000252256	1040
22	780	0.000264256	1040
22	818	0.000276256	1040
22	857	0.000288256	1040
22	894	0.000300256	1040
22	929	0.000312256	1040
22	961	0.000324256	1040
22	993	0.000336256	1040
22	1025	0.000348256	1040
22	1057	0.000360256	1040
22	1089	0.000372256	1040
22	1121	0.000384256	1040
22	1153	0.000396256	1040
22	1185	0.000408256	1040
22	1217	0.000420256	1040
22	1249	0.000432256	1040
22	1281	0.000444256	1040
22	1313	0.000456256	1040
22	1345	0.000468256	1040
22	1377	0.000480256	1040
22	1409	0.000492256	1040
22	1441	0.000504256	1040
22	1473	0.000516256	1040
22	1505	0.000528256	1040
22	1537	0.000540256	1040
22	1569	0.000552256	1040
22	1601	0.000564256	1040
22	1633	0.000576256	1040
22	1665	0.000588256	1040
22	1697	0.000600256	1040
22	1729	0.000612256	1040
22	1761	0.000624256	1040
22	1793	0.000636256	1040
22	1825	0.000648256	1040
22	1857	0.000660256	1040
22	1889	0.000672256	1040
22	1921	0.000684256	1040
22	1953	0.000696256	1040
22	1985	0.000708256	1040
22	2017	0.000720256	1040
22	2049	0.000732256	1040
22	2081	0.000744256	1040
22	2113	0.000756256	1040
22	2145	0.000768256	1040
22	2177	0.000780256	1040
22	2209	0.000792256	1040
22	2241	0.000804256	1040
23	51	0.000018376	1047
23	57	0.000026752	1047
23	66	0.000035128	1047
23	82	0.000043504	1047
23	102	0.00005188	1047
23	129	0.000060256	1047
23	156	0.000068632	1047
23	181	0.000077008	1047
23	213	0.000085384	1047
23	242	0.00009376	1047
23	266	0.000102136	1047
23	293	0.000110512	1047
23	321	0.000118888	1047
23	345	0.000127264	1047
23	372	0.00013564	1047
23	400	0.000144016	1047
23	428	0.000152392	1047
23	451	0.000160768	1047
23	482	0.000169144	1047
23	511	0.00017752	1047
23	534	0.000185896	1047
23	560	0.000194272	1047
23	587	0.000202648	1047
23	610	0.000211024	1047
23	636	0.0002194	1047
23	663	0.000227776	1047
23	690	0.000236152	1047
23	712	0.000244528	1047
23	742	0.000252904	1047
23	770	0.00026128	1047
23	789	0.000269656	1047
23	819	0.000278032	1047
23	857	0.000288256	1047
23	894	0.000300256	1047
23	929	0.000312256	1047
23	961	0.000324256	1047
23	993	0.000336256	1047
23	1025	0.000348256	1047
23	1057	0.000360256	1047
23	1089	0.000372256	1047
23	1121	0.000384256	1047
23	1153	0.000396256	1047
23	1185	0.000408256	1047
23	1217	0.000420256	1047
23	1249	0.000432256	1047
23	1281	0.000444256	1047
23	1313	0.000456256	1047
23	1345	0.000468256	1047
23	1377	0.000480256	1047
23	1409	0.000492256	1047
23	1441	0.000504256	1047
23	1473	0.000516256	1047
23	1505	0.000528256	1047
23	1537	0.000540256	1047
23	1569	0.000552256	1047
23	1601	0.000564256	1047
23	1633	0.000576256	1047
23	1665	0.000588256	1047
23	1697	0.000600256	1047
23	1729	0.000612256	1047
23	1761	0.000624256	1047
23	1793	0.000636256	1047
23	1825	0.000648256	1047
23	1857	0.000660256	1047
23	1889	0.000672256	1047
23	1921	0.000684256	1047
23	1953	0.000696256	1047
23	1985	0.000708256	1047
23	2017	0.000720256	1047
23	2049	0.000732256	1047
23	2081	0.000744256	1047
23	2113	0.000756256	1047
23	2145	0.000768256	1047
23	2177	0.000780256	1047
23	2209	0.000792256	1047
23	2241	0.000804256	1047
24	71	0.000036752	1047
24	87	0.000045128	1047
24	107	0.000053504	1047
24	134	0.00006188	1047
24	165	0.000070256	1047
24	191	0.000078632	1047
24	215	0.000087008	1047
24	243	0.000095384	1047
24	270	0.00010376	1047
24	294	0.000112136	1047
24	325	0.000120512	1047
24	350	0.000128888	1047
24	373	0.000137264	1047
24	404	0.00014564	1047
24	433	0.000154016	1047
24	457	0.000162392	1047
24	484	0.000170768	1047
24	512	0.000179144	1047
24	538	0.00018752	1047
24	561	0.000195896	1047
24	591	0.000204272	1047
24	615	0.000212648	1047
24	637	0.000221024	1047
24	667	0.0002294	1047
24	695	0.000237776	1047
24	718	0.000246152	1047
24	744	0.000254528	1047
24	772	0.000262904	1047
24	795	0.00027128	1047
24	821	0.000279656	1047
24	849	0.000288032	1047
24	876	0.000296408	1047
24	904	0.000306632	1047
24	943	0.000318632	1047
24	975	0.000330632	1047
24	1007	0.000342632	1047
24	1039	0.000354632	1047
24	1071	0.000366632	1047
24	1103	0.000378632	1047
24	1135	0.000390632	1047
24	1167	0.000402632	1047
24	1199	0.000414632	1047
24	1231	0.000426632	1047
24	1263	0.000438632	1047
24	1295	0.000450632	1047
24	1327	0.000462632	1047
24	1359	0.000474632	1047
24	1391	0.000486632	1047
24	1423	0.000498632	1047
24	1455	0.000510632	1047
24	1487	0.000522632	1047
24	1519	0.000534632	1047
24	1551	0.000546632	1047
24	1583	0.000558632	1047
24	1615	0.000570632	1047
24	1647	0.000582632	1047
24	1679	0.000594632	1047
24	1711	0.000606632	1047
24	1743	0.000618632	1047
24	1775	0.000630632	1047
24	1807	0.000642632	1047
24	1839	0.000654632	1047
24	1871	0.000666632	1047
24	1903	0.000678632	1047
24	1935	0.000690632	1047
24	1967	0.000702632	1047
24	1999	0.000714632	1047
24	2031	0.000726632	1047
24	2063	0.000738632	1047
24	2095	0.000750632	1047
24	2127	0.000762632	1047
24	2159	0.000774632	1047
24	2191	0.000786632	1047
24	2223	0.000798632	1047
25	71	0.000036752	1040
25	87	0.000045128	1040
25	107	0.000053504	1040
25	134	0.00006188	1040
25	165	0.000070256	1040
25	191	0.000078632	1040
25	215	0.000087008	1040
25	243	0.000095384	1040
25	270	0.00010376	1040
25	294	0.000112136	1040
25	325	0.000120512	1040
25	350	0.000128888	1040
25	373	0.000137264	1040
25	404	0.00014564	1040
25	433	0.000154016	1040
25	457	0.000162392	1040
25	484	0.000170768	1040
25	512	0.000179144	1040
25	538	0.00018752	1040
25	561	0.000195896	1040
25	591	0.000204272	1040
25	615	0.000212648	1040
25	637	0.000221024	1040
25	667	0.0002294	1040
25	695	0.000237776	1040
25	718	0.000246152	1040
25	744	0.000254528	1040
25	772	0.000262904	1040
25	795	0.00027128	1040
25	821	0.000279656	1040
25	849	0.000288032	1040
25	876	0.000296408	1040
25	904	0.000306632	1040
25	943	0.000318632	1040
25	975	0.000330632	1040
25	1007	0.000342632	1040
25	1039	0.000354632	1040
25	1071	0.000366632	1040
25	1103	0.000378632	1040
25	1135	0.000390632	1040
25	1167	0.000402632	1040
25	1199	0.000414632	1040
25	1231	0.000426632	1040
25	1263	0.000438632	1040
25	1295	0.000450632	1040
25	1327	0.000462632	1040
25	1359	0.000474632	1040
25	1391	0.000486632	1040
25	1423	0.000498632	1040
25	1455	0.000510632	1040
25	1487	0.000522632	1040
25	1519	0.000534632	1040
25	1551	0.000546632	1040
25	1583	0.000558632	1040
25	1615	0.000570632	1040
25	1647	0.000582632	1040
25	1679	0.000594632	1040
25	1711	0.000606632	1040
25	1743	0.000618632	1040
25	1775	0.000630632	1040
25	1807	0.000642632	1040
25	1839	0.000654632	1040
25	1871	0.000666632	1040
25	1903	0.000678632	1040
25	1935	0.000690632	1040
25	1967	0.000702632	1040
25	1999	0.000714632	1040
25	2031	0.000726632	1040
25	2063	0.000738632	1040
25	2095	0.000750632	1040
25	2127	0.000762632	1040
25	2159	0.000774632	1040
25	2191	0.000786632	1040
25	2223	0.000798632	1040
26	75	0.000036752	1047
26	111	0.000053504	1047
26	169	0.000070256	1047
26	219	0.000087008	1047
26	274	0.00010376	1047
26	329	0.000120512	1047
26	377	0.000137264	1047
26	437	0.000154016	1047
26	488	0.000170768	1047
26	825	0.000279656	1047
26	853	0.000288032	1047
26	908	0.000306632	1047
26	979	0.000330632	1047
26	1043	0.000354632	1047
26	1107	0.000378632	1047
26	1171	0.000402632	1047
26	1235	0.000426632	1047
26	1299	0.000450632	1047
26	1363	0.000474632	1047
26	1427	0.000498632	1047
26	1491	0.000522632	1047
26	1555	0.000546632	1047
26	1619	0.000570632	1047
26	1683	0.000594632	1047
26	1747	0.000618632	1047
26	1811	0.000642632	1047
26	1875	0.000666632	1047
26	1939	0.000690632	1047
26	2003	0.000714632	1047
26	2067	0.000738632	1047
26	2131	0.000762632	1047
26	2195	0.000786632	1047
27	76	0.000036752	40
27	92	0.000045128	40
27	112	0.000053504	40
27	120	0.000057128	40
27	139	0.00006188	40
27	163	0.000069128	40
27	170	0.000070256	40
27	196	0.000078632	40
27	208	0.000081128	40
27	220	0.000087008	40
27	240	0.000093128	40
27	248	0.000095384	40
27	275	0.00010376	40
27	280	0.000105128	40
27	299	0.000112136	40
27	319	0.000117128	40
27	330	0.000120512	40
27	355	0.000128888	40
27	358	0.000129128	40
27	378	0.000137264	40
27	395	0.000141128	40
27	409	0.00014564	40
27	431	0.000153128	40
27	438	0.000154016	40
27	462	0.000162392	40
27	474	0.000165128	40
27	489	0.000170768	40
27	509	0.000177128	40
27	516	0.000179144	40
27	542	0.00018752	40
27	547	0.000189128	40
27	565	0.000195896	40
27	585	0.000201128	40
27	595	0.000204272	40
27	619	0.000212648	40
27	623	0.000213128	40
27	641	0.000221024	40
27	661	0.000225128	40
27	671	0.0002294	40
27	693	0.000237128	40
27	699	0.000237776	40
27	722	0.000246152	40
27	734	0.000249128	40
27	749	0.000254528	40
27	769	0.000261128	40
27	776	0.000262904	40
27	799	0.00027128	40
27	807	0.000273128	40
27	826	0.000279656	40
27	846	0.000285128	40
27	854	0.000288032	40
27	881	0.000296408	40
27	886	0.000297128	40
27	909	0.000306632	40
27	925	0.000309128	40
27	948	0.000318632	40
27	957	0.000321128	40
27	980	0.000330632	40
27	989	0.000333128	40
27	1012	0.000342632	40
27	1021	0.000345128	40
27	1044	0.000354632	40
27	1053	0.000357128	40
27	1076	0.000366632	40
27	1085	0.000369128	40
27	1108	0.000378632	40
27	1117	0.000381128	40
27	1140	0.000390632	40
27	1149	0.000393128	40
27	1172	0.000402632	40
27	1181	0.000405128	40
27	1204	0.000414632	40
27	1213	0.000417128	40
27	1236	0.000426632	40
27	1245	0.000429128	40
27	1268	0.000438632	40
27	1277	0.000441128	40
27	1300	0.000450632	40
27	1309	0.000453128	40
27	1332	0.000462632	40
27	1341	0.000465128	40
27	1364	0.000474632	40
27	1373	0.000477128	40
27	1396	0.000486632	40
27	1405	0.000489128	40
27	1428	0.000498632	40
27	1437	0.000501128	40
27	1460	0.000510632	40
27	1469	0.000513128	40
27	1492	0.000522632	40
27	1501	0.000525128	40
27	1524	0.000534632	40
27	1533	0.000537128	40
27	1556	0.000546632	40
27	1565	0.000549128	40
27	1588	0.000558632	40
27	1597	0.000561128	40
27	1620	0.000570632	40
27	1629	0.000573128	40
27	1652	0.000582632	40
27	1661	0.000585128	40
27	1684	0.000594632	40
27	1693	0.000597128	40
27	1716	0.000606632	40
27	1725	0.000609128	40
27	1748	0.000618632	40
27	1757	0.000621128	40
27	1780	0.000630632	40
27	1789	0.000633128	40
27	1812	0.000642632	40
27	1821	0.000645128	40
27	1844	0.000654632	40
27	1853	0.000657128	40
27	1876	0.000666632	40
27	1885	0.000669128	40
27	1908	0.000678632	40
27	1917	0.000681128	40
27	1940	0.000690632	40
27	1949	0.000693128	40
27	1972	0.000702632	40
27	1981	0.000705128	40
27	2004	0.000714632	40
27	2013	0.000717128	40
27	2036	0.000726632	40
27	2045	0.000729128	40
27	2068	0.000738632	40
27	2077	0.000741128	40
27	2100	0.000750632	40
27	2109	0.000753128	40
27	2132	0.000762632	40
27	2141	0.000765128	40
27	2164	0.000774632	40
27	2173	0.000777128	40
27	2196	0.000786632	40
27	2205	0.000789128	40
27	2228	0.000798632	40
27	2237	0.000801128	40
28	76	0.000036752	40
28	92	0.000045128	40
28	112	0.000053504	40
28	120	0.000057128	40
28	139	0.00006188	40
28	163	0.000069128	40
28	170	0.000070256	40
28	196	0.000078632	40
28	208	0.000081128	40
28	220	0.000087008	40
28	240	0.000093128	40
28	248	0.000095384	40
28	275	0.00010376	40
28	280	0.000105128	40
28	299	0.000112136	40
28	319	0.000117128	40
28	330	0.000120512	40
28	355	0.000128888	40
28	358	0.000129128	40
28	378	0.000137264	40
28	395	0.000141128	40
28	409	0.00014564	40
28	431	0.000153128	40
28	438	0.000154016	40
28	462	0.000162392	40
28	474	0.000165128	40
28	489	0.000170768	40
28	509	0.000177128	40
28	516	0.000179144	40
28	542	0.00018752	40
28	547	0.000189128	40
28	565	0.000195896	40
28	585	0.000201128	40
28	595	0.000204272	40
28	619	0.000212648	40
28	623	0.000213128	40
28	641	0.000221024	40
28	661	0.000225128	40
28	671	0.0002294	40
28	693	0.000237128	40
28	699	0.000237776	40
28	722	0.000246152	40
28	734	0.000249128	40
28	749	0.000254528	40
28	769	0.000261128	40
28	776	0.000262904	40
28	799	0.00027128	40
28	807	0.000273128	40
28	826	0.000279656	40
28	846	0.000285128	40
28	854	0.000288032	40
28	881	0.000296408	40
28	886	0.000297128	40
28	909	0.000306632	40
28	925	0.000309128	40
28	948	0.000318632	40
28	957	0.000321128	40
28	980	0.000330632	40
28	989	0.000333128	40
28	1012	0.000342632	40
28	1021	0.000345128	40
28	1044	0.000354632	40
28	1053	0.000357128	40
28	1076	0.000366632	40
28	1085	0.000369128	40
28	1108	0.000378632	40
28	1117	0.000381128	40
28	1140	0.000390632	40
28	1149	0.000393128	40
28	1172	0.000402632	40
28	1181	0.000405128	40
28	1204	0.000414632	40
28	1213	0.000417128	40
28	1236	0.000426632	40
28	1245	0.000429128	40
28	1268	0.000438632	40
28	1277	0.000441128	40
28	1300	0.000450632	40
28	1309	0.000453128	40
28	1332	0.000462632	40
28	1341	0.000465128	40
28	1364	0.000474632	40
28	1373	0.000477128	40
28	1396	0.000486632	40
28	1405	0.000489128	40
28	1428	0.000498632	40
28	1437	0.000501128	40
28	1460	0.000510632	40
28	1469	0.000513128	40
28	1492	0.000522632	40
28	1501	0.000525128	40
28	1524	0.000534632	40
28	1533	0.000537128	40
28	1556	0.000546632	40
28	1565	0.000549128	40
28	1588	0.000558632	40
28	1597	0.000561128	40
28	1620	0.000570632	40
28	1629	0.000573128	40
28	1652	0.000582632	40
28	1661	0.000585128	40
28	1684	0.000594632	40
28	1693	0.000597128	40
28	1716	0.000606632	40
28	1725	0.000609128	40
28	1748	0.000618632	40
28	1757	0.000621128	40
28	1780	0.000630632	40
28	1789	0.000633128	40
28	1812	0.000642632	40
28	1821	0.000645128	40
28	1844	0.000654632	40
28	1853	0.000657128	40
28	1876	0.000666632	40
28	1885	0.000669128	40
28	1908	0.000678632	40
28	1917	0.000681128	40
28	1940	0.000690632	40
28	1949	0.000693128	40
28	1972	0.000702632	40
28	1981	0.000705128	40
28	2004	0.000714632	40
28	2013	0.000717128	40
28	2036	0.000726632	40
28	2045	0.000729128	40
28	2068	0.000738632	40
28	2077	0.000741128	40
28	2100	0.000750632	40
28	2109	0.000753128	40
28	2132	0.000762632	40
28	2141	0.000765128	40
28	2164	0.000774632	40
28	2173	0.000777128	40
28	2196	0.000786632	40
28	2205	0.000789128	40
28	2228	0.000798632	40
28	2237	0.000801128	40
29	76	0.000036752	1
29	76	0.000036752	0
29	92	0.000045128	1
29	92	0.000045128	0
29	112	0.000053504	1
29	112	0.000053504	0
29	120	0.000057128	1
29	120	0.000057128	0
29	139	0.00006188	1
29	139	0.00006188	0
29	163	0.000069128	1
29	163	0.000069128	0
29	170	0.000070256	1
29	170	0.000070256	0
29	196	0.000078632	1
29	196	0.000078632	0
29	208	0.000081128	1
29	208	0.000081128	0
29	220	0.000087008	1
29	220	0.000087008	0
29	240	0.000093128	1
29	240	0.000093128	0
29	248	0.000095384	1
29	248	0.000095384	0
29	275	0.00010376	1
29	275	0.00010376	0
29	280	0.000105128	1
29	280	0.000105128	0
29	299	0.000112136	1
29	299	0.000112136	0
29	319	0.000117128	1
29	319	0.000117128	0
29	330	0.000120512	1
29	330	0.000120512	0
29	355	0.000128888	1
29	355	0.000128888	0
29	358	0.000129128	1
29	359	0.000129264	0
29	378	0.000137264	1
29	378	0.000137264	0
29	395	0.000141128	1
29	395	0.000141128	0
29	409	0.00014564	1
29	409	0.00014564	0
29	431	0.000153128	1
29	431	0.000153128	0
29	438	0.000154016	1
29	438	0.000154016	0
29	462	0.000162392	1
29	462	0.000162392	0
29	474	0.000165128	1
29	474	0.000165128	0
29	489	0.000170768	1
29	489	0.000170768	0
29	509	0.000177128	1
29	509	0.000177128	0
29	516	0.000179144	1
29	516	0.000179144	0
29	542	0.00018752	1
29	542	0.00018752	0
29	547	0.000189128	1
29	547	0.000189128	0
29	565	0.000195896	1
29	565	0.000195896	0
29	585	0.000201128	1
29	585	0.000201128	0
29	595	0.000204272	1
29	595	0.000204272	0
29	619	0.000212648	1
29	619	0.000212648	0
29	623	0.000213128	1
29	623	0.000213128	0
29	641	0.000221024	1
29	641	0.000221024	0
29	661	0.000225128	1
29	661	0.000225128	0
29	671	0.0002294	1
29	671	0.0002294	0
29	693	0.000237128	1
29	693	0.000237128	0
29	699	0.000237776	1
29	699	0.000237776	0
29	722	0.000246152	1
29	722	0.000246152	0
29	734	0.000249128	1
29	734	0.000249128	0
29	749	0.000254528	1
29	749	0.000254528	0
29	769	0.000261128	1
29	769	0.000261128	0
29	776	0.000262904	1
29	776	0.000262904	0
29	799	0.00027128	1
29	799	0.00027128	0
29	807	0.000273128	1
29	807	0.000273128	0
29	826	0.000279656	1
29	826	0.000279656	0
29	846	0.000285128	1
29	846	0.000285128	0
29	854	0.000288032	1
29	854	0.000288032	0
29	881	0.000296408	1
29	881	0.000296408	0
29	886	0.000297128	1
29	886	0.000297128	0
29	909	0.000306632	1
29	909	0.000306632	0
29	925	0.000309128	1
29	925	0.000309128	0
29	948	0.000318632	1
29	948	0.000318632	0
29	957	0.000321128	1
29	957	0.000321128	0
29	980	0.000330632	1
29	980	0.000330632	0
29	989	0.000333128	1
29	989	0.000333128	0
29	1012	0.000342632	1
29	1012	0.000342632	0
29	1021	0.000345128	1
29	1021	0.000345128	0
29	1044	0.000354632	1
29	1044	0.000354632	0
29	1053	0.000357128	1
29	1053	0.000357128	0
29	1076	0.000366632	1
29	1076	0.000366632	0
29	1085	0.000369128	1
29	1085	0.000369128	0
29	1108	0.000378632	1
29	1108	0.000378632	0
29	1117	0.000381128	1
29	1117	0.000381128	0
29	1140	0.000390632	1
29	1140	0.000390632	0
29	1149	0.000393128	1
29	1149	0.000393128	0
29	1172	0.000402632	1
29	1172	0.000402632	0
29	1181	0.000405128	1
29	1181	0.000405128	0
29	1204	0.000414632	1
29	1204	0.000414632	0
29	1213	0.000417128	1
29	1213	0.000417128	0
29	1236	0.000426632	1
29	1236	0.000426632	0
29	1245	0.000429128	1
29	1245	0.000429128	0
29	1268	0.000438632	1
29	1268	0.000438632	0
29	1277	0.000441128	1
29	1277	0.000441128	0
29	1300	0.000450632	1
29	1300	0.000450632	0
29	1309	0.000453128	1
29	1309	0.000453128	0
29	1332	0.000462632	1
29	1332	0.000462632	0
29	1341	0.000465128	1
29	1341	0.000465128	0
29	1364	0.000474632	1
29	1364	0.000474632	0
29	1373	0.000477128	1
29	1373	0.000477128	0
29	1396	0.000486632	1
29	1396	0.000486632	0
29	1405	0.000489128	1
29	1405	0.000489128	0
29	1428	0.000498632	1
29	1428	0.000498632	0
29	1437	0.000501128	1
29	1437	0.000501128	0
29	1460	0.000510632	1
29	1460	0.000510632	0
29	1469	0.000513128	1
29	1469	0.000513128	0
29	1492	0.000522632	1
29	1492	0.000522632	0
29	1501	0.000525128	1
29	1501	0.000525128	0
29	1524	0.000534632	1
29	1524	0.000534632	0
29	1533	0.000537128	1
29	1533	0.000537128	0
29	1556	0.000546632	1
29	1556	0.000546632	0
29	1565	0.000549128	1
29	1565	0.000549128	0
29	1588	0.000558632	1
29	1588	0.000558632	0
29	1597	0.000561128	1
29	1597	0.000561128	0
29	1620	0.000570632	1
29	1620	0.000570632	0
29	1629	0.000573128	1
29	1629	0.000573128	0
29	1652	0.000582632	1
29	1652	0.000582632	0
29	1661	0.000585128	1
29	1661	0.000585128	0
29	1684	0.000594632	1
29	1684	0.000594632	0
29	1693	0.000597128	1
29	1693	0.000597128	0
29	1716	0.000606632	1
29	1716	0.000606632	0
29	1725	0.000609128	1
29	1725	0.000609128	0
29	1748	0.000618632	1
29	1748	0.000618632	0
29	1757	0.000621128	1
29	1757	0.000621128	0
29	1780	0.000630632	1
29	1780	0.000630632	0
29	1789	0.000633128	1
29	1789	0.000633128	0
29	1812	0.000642632	1
29	1812	0.000642632	0
29	1821	0.000645128	1
29	1821	0.000645128	0
29	1844	0.000654632	1
29	1844	0.000654632	0
29	1853	0.000657128	1
29	1853	0.000657128	0
29	1876	0.000666632	1
29	1876	0.000666632	0
29	1885	0.000669128	1
29	1885	0.000669128	0
29	1908	0.000678632	1
29	1908	0.000678632	0
29	1917	0.000681128	1
29	1917	0.000681128	0
29	1940	0.000690632	1
29	1940	0.000690632	0
29	1949	0.000693128	1
29	1949	0.000693128	0
29	1972	0.000702632	1
29	1972	0.000702632	0
29	1981	0.000705128	1
29	1981	0.000705128	0
29	2004	0.000714632	1
29	2004	0.000714632	0
29	2013	0.000717128	1
29	2013	0.000717128	0
29	2036	0.000726632	1
29	2036	0.000726632	0
29	2045	0.000729128	1
29	2045	0.000729128	0
29	2068	0.000738632	1
29	2068	0.000738632	0
29	2077	0.000741128	1
29	2077	0.000741128	0
29	2100	0.000750632	1
29	2100	0.000750632	0
29	2109	0.000753128	1
29	2109	0.000753128	0
29	2132	0.000762632	1
29	2132	0.000762632	0
29	2141	0.000765128	1
29	2141	0.000765128	0
29	2164	0.000774632	1
29	2164	0.000774632	0
29	2173	0.000777128	1
29	2173	0.000777128	0
29	2196	0.000786632	1
29	2196	0.000786632	0
29	2205	0.000789128	1
29	2205	0.000789128	0
29	2228	0.000798632	1
29	2228	0.000798632	0
29	2237	0.000801128	1
29	2237	0.000801128	0
30	76	0.000036752	40
30	92	0.000045128	40
30	112	0.000053504	40
30	120	0.000057128	40
30	139	0.00006188	40
30	163	0.000069128	40
30	170	0.000070256	40
30	196	0.000078632	40
30	208	0.000081128	40
30	220	0.000087008	40
30	240	0.000093128	40
30	248	0.000095384	40
30	275	0.00010376	40
30	280	0.000105128	40
30	299	0.000112136	40
30	319	0.000117128	40
30	330	0.000120512	40
30	355	0.000128888	40
30	359	0.000129264	40
30	378	0.000137264	40
30	395	0.000141128	40
30	409	0.00014564	40
30	431	0.000153128	40
30	438	0.000154016	40
30	462	0.000162392	40
30	474	0.000165128	40
30	489	0.000170768	40
30	509	0.000177128	40
30	516	0.000179144	40
30	542	0.00018752	40
30	547	0.000189128	40
30	565	0.000195896	40
30	585	0.000201128	40
30	595	0.000204272	40
30	619	0.000212648	40
30	623	0.000213128	40
30	641	0.000221024	40
30	661	0.000225128	40
30	671	0.0002294	40
30	693	0.000237128	40
30	699	0.000237776	40
30	722	0.000246152	40
30	734	0.000249128	40
30	749	0.000254528	40
30	769	0.000261128	40
30	776	0.000262904	40
30	799	0.00027128	40
30	807	0.000273128	40
30	826	0.000279656	40
30	846	0.000285128	40
30	854	0.000288032	40
30	881	0.000296408	40
30	886	0.000297128	40
30	909	0.000306632	40
30	925	0.000309128	40
30	948	0.000318632	40
30	957	0.000321128	40
30	980	0.000330632	40
30	989	0.000333128	40
30	1012	0.000342632	40
30	1021	0.000345128	40
30	1044	0.000354632	40
30	1053	0.000357128	40
30	1076	0.000366632	40
30	1085	0.000369128	40
30	1108	0.000378632	40
30	1117	0.000381128	40
30	1140	0.000390632	40
30	1149	0.000393128	40
30	1172	0.000402632	40
30	1181	0.000405128	40
30	1204	0.000414632	40
30	1213	0.000417128	40
30	1236	0.000426632	40
30	1245	0.000429128	40
30	1268	0.000438632	40
30	1277	0.000441128	40
30	1300	0.000450632	40
30	1309	0.000453128	40
30	1332	0.000462632	40
30	1341	0.000465128	40
30	1364	0.000474632	40
30	1373	0.000477128	40
30	1396	0.000486632	40
30	1405	0.000489128	40
30	1428	0.000498632	40
30	1437	0.000501128	40
30	1460	0.000510632	40
30	1469	0.000513128	40
30	1492	0.000522632	40
30	1501	0.000525128	40
30	1524	0.000534632	40
30	1533	0.000537128	40
30	1556	0.000546632	40
30	1565	0.000549128	40
30	1588	0.000558632	40
30	1597	0.000561128	40
30	1620	0.000570632	40
30	1629	0.000573128	40
30	1652	0.000582632	40
30	1661	0.000585128	40
30	1684	0.000594632	40
30	1693	0.000597128	40
30	1716	0.000606632	40
30	1725	0.000609128	40
30	1748	0.000618632	40
30	1757	0.000621128	40
30	1780	0.000630632	40
30	1789	0.000633128	40
30	1812	0.000642632	40
30	1821	0.000645128	40
30	1844	0.000654632	40
30	1853	0.000657128	40
30	1876	0.000666632	40
30	1885	0.000669128	40
30	1908	0.000678632	40
30	1917	0.000681128	40
30	1940	0.000690632	40
30	1949	0.000693128	40
30	1972	0.000702632	40
30	1981	0.000705128	40
30	2004	0.000714632	40
30	2013	0.000717128	40
30	2036	0.000726632	40
30	2045	0.000729128	40
30	2068	0.000738632	40
30	2077	0.000741128	40
30	2100	0.000750632	40
30	2109	0.000753128	40
30	2132	0.000762632	40
30	2141	0.000765128	40
30	2164	0.000774632	40
30	2173	0.000777128	40
30	2196	0.000786632	40
30	2205	0.000789128	40
30	2228	0.000798632	40
30	2237	0.000801128	40
31	76	0.000036752	0
31	92	0.000045128	0
31	112	0.000053504	0
31	120	0.000057128	0
31	139	0.00006188	0
31	163	0.000069128	0
31	170	0.000070256	0
31	196	0.000078632	0
31	208	0.000081128	0
31	220	0.000087008	0
31	240	0.000093128	0
31	248	0.000095384	0
31	275	0.00010376	0
31	280	0.000105128	0
31	299	0.000112136	0
31	319	0.000117128	0
31	330	0.000120512	0
31	355	0.000128888	0
31	359	0.000129264	1.36e-07
31	378	0.000137264	0
31	395	0.000141128	0
31	409	0.00014564	0
31	431	0.000153128	0
31	438	0.000154016	0
31	462	0.000162392	0
31	474	0.000165128	0
31	489	0.000170768	0
31	509	0.000177128	0
31	516	0.000179144	0
31	542	0.00018752	0
31	547	0.000189128	0
31	565	0.000195896	0
31	585	0.000201128	0
31	595	0.000204272	0
31	619	0.000212648	0
31	623	0.000213128	0
31	641	0.000221024	0
31	661	0.000225128	0
31	671	0.0002294	0
31	693	0.000237128	0
31	699	0.000237776	0
31	722	0.000246152	0
31	734	0.000249128	0
31	749	0.000254528	0
31	769	0.000261128	0
31	776	0.000262904	0
31	799	0.00027128	0
31	807	0.000273128	0
31	826	0.000279656	0
31	846	0.000285128	0
31	854	0.000288032	0
31	881	0.000296408	0
31	886	0.000297128	0
31	909	0.000306632	0
31	925	0.000309128	0
31	948	0.000318632	0
31	957	0.000321128	0
31	980	0.000330632	0
31	989	0.000333128	0
31	1012	0.000342632	0
31	1021	0.000345128	0
31	1044	0.000354632	0
31	1053	0.000357128	0
31	1076	0.000366632	0
31	1085	0.000369128	0
31	1108	0.000378632	0
31	1117	0.000381128	0
31	1140	0.000390632	0
31	1149	0.000393128	0
31	1172	0.000402632	0
31	1181	0.000405128	0
31	1204	0.000414632	0
31	1213	0.000417128	0
31	1236	0.000426632	0
31	1245	0.000429128	0
31	1268	0.000438632	0
31	1277	0.000441128	0
31	1300	0.000450632	0
31	1309	0.000453128	0
31	1332	0.000462632	0
31	1341	0.000465128	0
31	1364	0.000474632	0
31	1373	0.000477128	0
31	1396	0.000486632	0
31	1405	0.000489128	0
31	1428	0.000498632	0
31	1437	0.000501128	0
31	1460	0.000510632	0
31	1469	0.000513128	0
31	1492	0.000522632	0
31	1501	0.000525128	0
31	1524	0.000534632	0
31	1533	0.000537128	0
31	1556	0.000546632	0
31	1565	0.000549128	0
31	1588	0.000558632	0
31	1597	0.000561128	0
31	1620	0.000570632	0
31	1629	0.000573128	0
31	1652	0.000582632	0
31	1661	0.000585128	0
31	1684	0.000594632	0
31	1693	0.000597128	0
31	1716	0.000606632	0
31	1725	0.000609128	0
31	1748	0.000618632	0
31	1757	0.000621128	0
31	1780	0.000630632	0
31	1789	0.000633128	0
31	1812	0.000642632	0
31	1821	0.000645128	0
31	1844	0.000654632	0
31	1853	0.000657128	0
31	1876	0.000666632	0
31	1885	0.000669128	0
31	1908	0.000678632	0
31	1917	0.000681128	0
31	1940	0.000690632	0
31	1949	0.000693128	0
31	1972	0.000702632	0
31	1981	0.000705128	0
31	2004	0.000714632	0
31	2013	0.000717128	0
31	2036	0.000726632	0
31	2045	0.000729128	0
31	2068	0.000738632	0
31	2077	0.000741128	0
31	2100	0.000750632	0
31	2109	0.000753128	0
31	2132	0.000762632	0
31	2141	0.000765128	0
31	2164	0.000774632	0
31	2173	0.000777128	0
31	2196	0.000786632	0
31	2205	0.000789128	0
31	2228	0.000798632	0
31	2237	0.000801128	0
32	76	0.000036752	47
32	92	0.000045128	47
32	112	0.000053504	47
32	120	0.000057128	47
32	139	0.00006188	47
32	163	0.000069128	47
32	170	0.000070256	47
32	196	0.000078632	47
32	208	0.000081128	47
32	220	0.000087008	47
32	240	0.000093128	47
32	248	0.000095384	47
32	275	0.00010376	47
32	280	0.000105128	47
32	299	0.000112136	47
32	319	0.000117128	47
32	330	0.000120512	47
32	355	0.000128888	47
32	359	0.000129264	47
32	378	0.000137264	47
32	395	0.000141128	47
32	409	0.00014564	47
32	431	0.000153128	47
32	438	0.000154016	47
32	462	0.000162392	47
32	474	0.000165128	47
32	489	0.000170768	47
32	509	0.000177128	47
32	516	0.000179144	47
32	542	0.00018752	47
32	547	0.000189128	47
32	565	0.000195896	47
32	585	0.000201128	47
32	595	0.000204272	47
32	619	0.000212648	47
32	623	0.000213128	47
32	641	0.000221024	47
32	661	0.000225128	47
32	671	0.0002294	47
32	693	0.000237128	47
32	699	0.000237776	47
32	722	0.000246152	47
32	734	0.000249128	47
32	749	0.000254528	47
32	769	0.000261128	47
32	776	0.000262904	47
32	799	0.00027128	47
32	807	0.000273128	47
32	826	0.000279656	47
32	846	0.000285128	47
32	854	0.000288032	47
32	881	0.000296408	47
32	886	0.000297128	47
32	909	0.000306632	47
32	925	0.000309128	47
32	948	0.000318632	47
32	957	0.000321128	47
32	980	0.000330632	47
32	989	0.000333128	47
32	1012	0.000342632	47
32	1021	0.000345128	47
32	1044	0.000354632	47
32	1053	0.000357128	47
32	1076	0.000366632	47
32	1085	0.000369128	47
32	1108	0.000378632	47
32	1117	0.000381128	47
32	1140	0.000390632	47
32	1149	0.000393128	47
32	1172	0.000402632	47
32	1181	0.000405128	47
32	1204	0.000414632	47
32	1213	0.000417128	47
32	1236	0.000426632	47
32	1245	0.000429128	47
32	1268	0.000438632	47
32	1277	0.000441128	47
32	1300	0.000450632	47
32	1309	0.000453128	47
32	1332	0.000462632	47
32	1341	0.000465128	47
32	1364	0.000474632	47
32	1373	0.000477128	47
32	1396	0.000486632	47
32	1405	0.000489128	47
32	1428	0.000498632	47
32	1437	0.000501128	47
32	1460	0.000510632	47
32	1469	0.000513128	47
32	1492	0.000522632	47
32	1501	0.000525128	47
32	1524	0.000534632	47
32	1533	0.000537128	47
32	1556	0.000546632	47
32	1565	0.000549128	47
32	1588	0.000558632	47
32	1597	0.000561128	47
32	1620	0.000570632	47
32	1629	0.000573128	47
32	1652	0.000582632	47
32	1661	0.000585128	47
32	1684	0.000594632	47
32	1693	0.000597128	47
32	1716	0.000606632	47
32	1725	0.000609128	47
32	1748	0.000618632	47
32	1757	0.000621128	47
32	1780	0.000630632	47
32	1789	0.000633128	47
32	1812	0.000642632	47
32	1821	0.000645128	47
32	1844	0.000654632	47
32	1853	0.000657128	47
32	1876	0.000666632	47
32	1885	0.000669128	47
32	1908	0.000678632	47
32	1917	0.000681128	47
32	1940	0.000690632	47
32	1949	0.000693128	47
32	1972	0.000702632	47
32	1981	0.000705128	47
32	2004	0.000714632	47
32	2013	0.000717128	47
32	2036	0.000726632	47
32	2045	0.000729128	47
32	2068	0.000738632	47
32	2077	0.000741128	47
32	2100	0.000750632	47
32	2109	0.000753128	47
32	2132	0.000762632	47
32	2141	0.000765128	47
32	2164	0.000774632	47
32	2173	0.000777128	47
32	2196	0.000786632	47
32	2205	0.000789128	47
32	2228	0.000798632	47
32	2237	0.000801128	47
33	91	0.000045128	1047
33	138	0.00006188	1047
33	195	0.000078632	1047
33	247	0.000095384	1047
33	298	0.000112136	1047
33	354	0.000128888	1047
33	408	0.00014564	1047
33	461	0.000162392	1047
33	748	0.000254528	1047
33	880	0.000296408	1047
33	947	0.000318632	1047
33	1011	0.000342632	1047
33	1075	0.000366632	1047
33	1139	0.000390632	1047
33	1203	0.000414632	1047
33	1267	0.000438632	1047
33	1331	0.000462632	1047
33	1395	0.000486632	1047
33	1459	0.000510632	1047
33	1523	0.000534632	1047
33	1587	0.000558632	1047
33	1651	0.000582632	1047
33	1715	0.000606632	1047
33	1779	0.000630632	1047
33	1843	0.000654632	1047
33	1907	0.000678632	1047
33	1971	0.000702632	1047
33	2035	0.000726632	1047
33	2099	0.000750632	1047
33	2163	0.000774632	1047
33	2227	0.000798632	1047
34	94	0.000047128	47
34	114	0.000055504	47
34	141	0.00006388	47
34	150	0.000067504	47
34	172	0.000072256	47
34	198	0.000079504	47
34	202	0.000080632	47
34	222	0.000089008	47
34	234	0.000091504	47
34	253	0.000097384	47
34	267	0.000103504	47
34	282	0.00010576	47
34	306	0.000114136	47
34	310	0.000115504	47
34	333	0.000122512	47
34	346	0.000127504	47
34	361	0.000130888	47
34	385	0.000139264	47
34	388	0.00013964	47
34	412	0.00014764	47
34	424	0.000151504	47
34	440	0.000156016	47
34	464	0.000163504	47
34	468	0.000164392	47
34	491	0.000172768	47
34	503	0.000175504	47
34	521	0.000181144	47
34	535	0.000187504	47
34	549	0.00018952	47
34	572	0.000197896	47
34	576	0.000199504	47
34	598	0.000206272	47
34	611	0.000211504	47
34	625	0.000214648	47
34	648	0.000223024	47
34	652	0.000223504	47
34	674	0.0002314	47
34	686	0.000235504	47
34	701	0.000239776	47
34	724	0.000247504	47
34	728	0.000248152	47
34	751	0.000256528	47
34	763	0.000259504	47
34	781	0.000264904	47
34	800	0.000271504	47
34	808	0.00027328	47
34	828	0.000281656	47
34	837	0.000283504	47
34	859	0.000290032	47
34	872	0.000295504	47
34	888	0.000298408	47
34	910	0.000306784	47
34	915	0.000307504	47
34	931	0.000317008	47
34	950	0.000319504	47
34	966	0.000329008	47
34	982	0.000331504	47
34	998	0.000341008	47
34	1014	0.000343504	47
34	1030	0.000353008	47
34	1046	0.000355504	47
34	1062	0.000365008	47
34	1078	0.000367504	47
34	1094	0.000377008	47
34	1110	0.000379504	47
34	1126	0.000389008	47
34	1142	0.000391504	47
34	1158	0.000401008	47
34	1174	0.000403504	47
34	1190	0.000413008	47
34	1206	0.000415504	47
34	1222	0.000425008	47
34	1238	0.000427504	47
34	1254	0.000437008	47
34	1270	0.000439504	47
34	1286	0.000449008	47
34	1302	0.000451504	47
34	1318	0.000461008	47
34	1334	0.000463504	47
34	1350	0.000473008	47
34	1366	0.000475504	47
34	1382	0.000485008	47
34	1398	0.000487504	47
34	1414	0.000497008	47
34	1430	0.000499504	47
34	1446	0.000509008	47
34	1462	0.000511504	47
34	1478	0.000521008	47
34	1494	0.000523504	47
34	1510	0.000533008	47
34	1526	0.000535504	47
34	1542	0.000545008	47
34	1558	0.000547504	47
34	1574	0.000557008	47
34	1590	0.000559504	47
34	1606	0.000569008	47
34	1622	0.000571504	47
34	1638	0.000581008	47
34	1654	0.000583504	47
34	1670	0.000593008	47
34	1686	0.000595504	47
34	1702	0.000605008	47
34	1718	0.000607504	47
34	1734	0.000617008	47
34	1750	0.000619504	47
34	1766	0.000629008	47
34	1782	0.000631504	47
34	1798	0.000641008	47
34	1814	0.000643504	47
34	1830	0.000653008	47
34	1846	0.000655504	47
34	1862	0.000665008	47
34	1878	0.000667504	47
34	1894	0.000677008	47
34	1910	0.000679504	47
34	1926	0.000689008	47
34	1942	0.000691504	47
34	1958	0.000701008	47
34	1974	0.000703504	47
34	1990	0.000713008	47
34	2006	0.000715504	47
34	2022	0.000725008	47
34	2038	0.000727504	47
34	2054	0.000737008	47
34	2070	0.000739504	47
34	2086	0.000749008	47
34	2102	0.000751504	47
34	2118	0.000761008	47
34	2134	0.000763504	47
34	2150	0.000773008	47
34	2166	0.000775504	47
34	2182	0.000785008	47
34	2198	0.000787504	47
34	2214	0.000797008	47
34	2230	0.000799504	47
35	94	0.000047128	40
35	114	0.000055504	40
35	141	0.00006388	40
35	150	0.000067504	40
35	172	0.000072256	40
35	198	0.000079504	40
35	202	0.000080632	40
35	222	0.000089008	40
35	234	0.000091504	40
35	253	0.000097384	40
35	267	0.000103504	40
35	282	0.00010576	40
35	306	0.000114136	40
35	310	0.000115504	40
35	333	0.000122512	40
35	346	0.000127504	40
35	361	0.000130888	40
35	385	0.000139264	40
35	388	0.00013964	40
35	412	0.00014764	40
35	424	0.000151504	40
35	440	0.000156016	40
35	464	0.000163504	40
35	468	0.000164392	40
35	491	0.000172768	40
35	503	0.000175504	40
35	521	0.000181144	40
35	535	0.000187504	40
35	549	0.00018952	40
35	572	0.000197896	40
35	576	0.000199504	40
35	598	0.000206272	40
35	611	0.000211504	40
35	625	0.000214648	40
35	648	0.000223024	40
35	652	0.000223504	40
35	674	0.0002314	40
35	686	0.000235504	40
35	701	0.000239776	40
35	724	0.000247504	40
35	728	0.000248152	40
35	751	0.000256528	40
35	763	0.000259504	40
35	781	0.000264904	40
35	800	0.000271504	40
35	808	0.00027328	40
35	828	0.000281656	40
35	837	0.000283504	40
35	859	0.000290032	40
35	872	0.000295504	40
35	888	0.000298408	40
35	910	0.000306784	40
35	915	0.000307504	40
35	931	0.000317008	40
35	950	0.000319504	40
35	966	0.000329008	40
35	982	0.000331504	40
35	998	0.000341008	40
35	1014	0.000343504	40
35	1030	0.000353008	40
35	1046	0.000355504	40
35	1062	0.000365008	40
35	1078	0.000367504	40
35	1094	0.000377008	40
35	1110	0.000379504	40
35	1126	0.000389008	40
35	1142	0.000391504	40
35	1158	0.000401008	40
35	1174	0.000403504	40
35	1190	0.000413008	40
35	1206	0.000415504	40
35	1222	0.000425008	40
35	1238	0.000427504	40
35	1254	0.000437008	40
35	1270	0.000439504	40
35	1286	0.000449008	40
35	1302	0.000451504	40
35	1318	0.000461008	40
35	1334	0.000463504	40
35	1350	0.000473008	40
35	1366	0.000475504	40
35	1382	0.000485008	40
35	1398	0.000487504	40
35	1414	0.000497008	40
35	1430	0.000499504	40
35	1446	0.000509008	40
35	1462	0.000511504	40
35	1478	0.000521008	40
35	1494	0.000523504	40
35	1510	0.000533008	40
35	1526	0.000535504	40
35	1542	0.000545008	40
35	1558	0.000547504	40
35	1574	0.000557008	40
35	1590	0.000559504	40
35	1606	0.000569008	40
35	1622	0.000571504	40
35	1638	0.000581008	40
35	1654	0.000583504	40
35	1670	0.000593008	40
35	1686	0.000595504	40
35	1702	0.000605008	40
35	1718	0.000607504	40
35	1734	0.000617008	40
35	1750	0.000619504	40
35	1766	0.000629008	40
35	1782	0.000631504	40
35	1798	0.000641008	40
35	1814	0.000643504	40
35	1830	0.000653008	40
35	1846	0.000655504	40
35	1862	0.000665008	40
35	1878	0.000667504	40
35	1894	0.000677008	40
35	1910	0.000679504	40
35	1926	0.000689008	40
35	1942	0.000691504	40
35	1958	0.000701008	40
35	1974	0.000703504	40
35	1990	0.000713008	40
35	2006	0.000715504	40
35	2022	0.000725008	40
35	2038	0.000727504	40
35	2054	0.000737008	40
35	2070	0.000739504	40
35	2086	0.000749008	40
35	2102	0.000751504	40
35	2118	0.000761008	40
35	2134	0.000763504	40
35	2150	0.000773008	40
35	2166	0.000775504	40
35	2182	0.000785008	40
35	2198	0.000787504	40
35	2214	0.000797008	40
35	2230	0.000799504	40
36	96	0.000047128	40
36	143	0.00006388	40
36	152	0.000067504	40
36	204	0.000080632	40
36	236	0.000091504	40
36	255	0.000097384	40
36	308	0.000114136	40
36	312	0.000115504	40
36	363	0.000130888	40
36	391	0.00013964	40
36	414	0.00014764	40
36	466	0.000163504	40
36	470	0.000164392	40
36	523	0.000181144	40
36	537	0.000187504	40
36	574	0.000197896	40
36	613	0.000211504	40
36	627	0.000214648	40
36	650	0.000223024	40
36	688	0.000235504	40
36	703	0.000239776	40
36	753	0.000256528	40
36	765	0.000259504	40
36	839	0.000283504	40
36	861	0.000290032	40
36	890	0.000298408	40
36	917	0.000307504	40
36	933	0.000317008	40
36	984	0.000331504	40
36	1000	0.000341008	40
36	1048	0.000355504	40
36	1064	0.000365008	40
36	1112	0.000379504	40
36	1128	0.000389008	40
36	1176	0.000403504	40
36	1192	0.000413008	40
36	1240	0.000427504	40
36	1256	0.000437008	40
36	1304	0.000451504	40
36	1320	0.000461008	40
36	1368	0.000475504	40
36	1384	0.000485008	40
36	1432	0.000499504	40
36	1448	0.000509008	40
36	1496	0.000523504	40
36	1512	0.000533008	40
36	1560	0.000547504	40
36	1576	0.000557008	40
36	1624	0.000571504	40
36	1640	0.000581008	40
36	1688	0.000595504	40
36	1704	0.000605008	40
36	1752	0.000619504	40
36	1768	0.000629008	40
36	1816	0.000643504	40
36	1832	0.000653008	40
36	1880	0.000667504	40
36	1896	0.000677008	40
36	1944	0.000691504	40
36	1960	0.000701008	40
36	2008	0.000715504	40
36	2024	0.000725008	40
36	2072	0.000739504	40
36	2088	0.000749008	40
36	2136	0.000763504	40
36	2152	0.000773008	40
[...]
27	3060	0.001110632	40
27	3068	0.001113128	40
27	3093	0.001125128	40
27	3100	0.001130632	40
27	3121	0.001137128	40
27	3132	0.001143008	40
27	3150	0.001149128	40
27	3164	0.001155384	40
27	3182	0.001161128	40
27	3196	0.00116776	40
27	3214	0.001173128	40
27	3228	0.001180136	40
27	3246	0.001185128	40
27	3263	0.001192512	40
27	3292	0.001204888	40
27	3316	0.001217264	40
27	3336	0.00122964	40
27	3351	0.001242016	40
27	3367	0.001254392	40
28	2260	0.000810632	40
28	2269	0.000813128	40
28	2292	0.000822632	40
28	2301	0.000825128	40
28	2324	0.000834632	40
28	2333	0.000837128	40
28	2356	0.000846632	40
28	2365	0.000849128	40
28	2388	0.000858632	40
28	2397	0.000861128	40
28	2420	0.000870632	40
28	2429	0.000873128	40
28	2452	0.000882632	40
28	2461	0.000885128	40
28	2484	0.000894632	40
28	2493	0.000897128	40
28	2516	0.000906632	40
28	2525	0.000909128	40
28	2548	0.000918632	40
28	2557	0.000921128	40
28	2580	0.000930632	40
28	2589	0.000933128	40
28	2612	0.000942632	40
28	2621	0.000945128	40
28	2644	0.000954632	40
28	2653	0.000957128	40
28	2676	0.000966632	40
28	2685	0.000969128	40
28	2708	0.000978632	40
28	2717	0.000981128	40
28	2740	0.000990632	40
28	2749	0.000993128	40
28	2772	0.001002632	40
28	2781	0.001005128	40
28	2804	0.001014632	40
28	2813	0.001017128	40
28	2836	0.001026632	40
28	2845	0.001029128	40
28	2868	0.001038632	40
28	2877	0.001041128	40
28	2900	0.001050632	40
28	2909	0.001053128	40
28	2932	0.001062632	40
28	2941	0.001065128	40
28	2964	0.001074632	40
28	2973	0.001077128	40
28	2996	0.001086632	40
28	3005	0.001089128	40
28	3028	0.001098632	40
28	3037	0.001101128	40
28	3060	0.001110632	40
28	3068	0.001113128	40
28	3093	0.001125128	40
28	3100	0.001130632	40
28	3121	0.001137128	40
28	3132	0.001143008	40
28	3150	0.001149128	40
28	3164	0.001155384	40
28	3182	0.001161128	40
28	3196	0.00116776	40
28	3214	0.001173128	40
28	3228	0.001180136	40
28	3246	0.001185128	40
28	3263	0.001192512	40
28	3292	0.001204888	40
28	3316	0.001217264	40
28	3336	0.00122964	40
28	3351	0.001242016	40
28	3367	0.001254392	40
29	2260	0.000810632	1
29	2260	0.000810632	0
29	2269	0.000813128	1
29	2269	0.000813128	0
29	2292	0.000822632	1
29	2292	0.000822632	0
29	2301	0.000825128	1
29	2301	0.000825128	0
29	2324	0.000834632	1
29	2324	0.000834632	0
29	2333	0.000837128	1
29	2333	0.000837128	0
29	2356	0.000846632	1
29	2356	0.000846632	0
29	2365	0.000849128	1
29	2365	0.000849128	0
29	2388	0.000858632	1
29	2388	0.000858632	0
29	2397	0.000861128	1
29	2397	0.000861128	0
29	2420	0.000870632	1
29	2420	0.000870632	0
29	2429	0.000873128	1
29	2429	0.000873128	0
29	2452	0.000882632	1
29	2452	0.000882632	0
29	2461	0.000885128	1
29	2461	0.000885128	0
29	2484	0.000894632	1
29	2484	0.000894632	0
29	2493	0.000897128	1
29	2493	0.000897128	0
29	2516	0.000906632	1
29	2516	0.000906632	0
29	2525	0.000909128	1
29	2525	0.000909128	0
29	2548	0.000918632	1
29	2548	0.000918632	0
29	2557	0.000921128	1
29	2557	0.000921128	0
29	2580	0.000930632	1
29	2580	0.000930632	0
29	2589	0.000933128	1
29	2589	0.000933128	0
29	2612	0.000942632	1
29	2612	0.000942632	0
29	2621	0.000945128	1
29	2621	0.000945128	0
29	2644	0.000954632	1
29	2644	0.000954632	0
29	2653	0.000957128	1
29	2653	0.000957128	0
29	2676	0.000966632	1
29	2676	0.000966632	0
29	2685	0.000969128	1
29	2685	0.000969128	0
29	2708	0.000978632	1
29	2708	0.000978632	0
29	2717	0.000981128	1
29	2717	0.000981128	0
29	2740	0.000990632	1
29	2740	0.000990632	0
29	2749	0.000993128	1
29	2749	0.000993128	0
29	2772	0.001002632	1
29	2772	0.001002632	0
29	2781	0.001005128	1
29	2781	0.001005128	0
29	2804	0.001014632	1
29	2804	0.001014632	0
29	2813	0.001017128	1
29	2813	0.001017128	0
29	2836	0.001026632	1
29	2836	0.001026632	0
29	2845	0.001029128	1
29	2845	0.001029128	0
29	2868	0.001038632	1
29	2868	0.001038632	0
29	2877	0.001041128	1
29	2877	0.001041128	0
29	2900	0.001050632	1
29	2900	0.001050632	0
29	2909	0.001053128	1
29	2909	0.001053128	0
29	2932	0.001062632	1
29	2932	0.001062632	0
29	2941	0.001065128	1
29	2941	0.001065128	0
29	2964	0.001074632	1
29	2964	0.001074632	0
29	2973	0.001077128	1
29	2973	0.001077128	0
29	2996	0.001086632	1
29	2996	0.001086632	0
29	3005	0.001089128	1
29	3005	0.001089128	0
29	3028	0.001098632	1
29	3028	0.001098632	0
29	3037	0.001101128	1
29	3037	0.001101128	0
29	3060	0.001110632	1
29	3060	0.001110632	0
29	3068	0.001113128	1
29	3068	0.001113128	0
29	3093	0.001125128	1
29	3093	0.001125128	0
29	3100	0.001130632	1
29	3100	0.001130632	0
29	3121	0.001137128	1
29	3121	0.001137128	0
29	3132	0.001143008	1
29	3132	0.001143008	0
29	3150	0.001149128	1
29	3150	0.001149128	0
29	3164	0.001155384	1
29	3164	0.001155384	0
29	3182	0.001161128	1
29	3182	0.001161128	0
29	3196	0.00116776	1
29	3196	0.00116776	0
29	3214	0.001173128	1
29	3214	0.001173128	0
29	3228	0.001180136	1
29	3228	0.001180136	0
29	3246	0.001185128	1
29	3246	0.001185128	0
29	3263	0.001192512	1
29	3263	0.001192512	0
29	3292	0.001204888	1
29	3292	0.001204888	0
29	3316	0.001217264	1
29	3316	0.001217264	0
29	3336	0.00122964	1
29	3336	0.00122964	0
29	3351	0.001242016	1
29	3351	0.001242016	0
29	3367	0.001254392	1
29	3367	0.001254392	0
30	2260	0.000810632	40
30	2269	0.000813128	40
30	2292	0.000822632	40
30	2301	0.000825128	40
30	2324	0.000834632	40
30	2333	0.000837128	40
30	2356	0.000846632	40
30	2365	0.000849128	40
30	2388	0.000858632	40
30	2397	0.000861128	40
30	2420	0.000870632	40
30	2429	0.000873128	40
30	2452	0.000882632	40
30	2461	0.000885128	40
30	2484	0.000894632	40
30	2493	0.000897128	40
30	2516	0.000906632	40
30	2525	0.000909128	40
30	2548	0.000918632	40
30	2557	0.000921128	40
30	2580	0.000930632	40
30	2589	0.000933128	40
30	2612	0.000942632	40
30	2621	0.000945128	40
30	2644	0.000954632	40
30	2653	0.000957128	40
30	2676	0.000966632	40
30	2685	0.000969128	40
30	2708	0.000978632	40
30	2717	0.000981128	40
30	2740	0.000990632	40
30	2749	0.000993128	40
30	2772	0.001002632	40
30	2781	0.001005128	40
30	2804	0.001014632	40
30	2813	0.001017128	40
30	2836	0.001026632	40
30	2845	0.001029128	40
30	2868	0.001038632	40
30	2877	0.001041128	40
30	2900	0.001050632	40
30	2909	0.001053128	40
30	2932	0.001062632	40
30	2941	0.001065128	40
30	2964	0.001074632	40
30	2973	0.001077128	40
30	2996	0.001086632	40
30	3005	0.001089128	40
30	3028	0.001098632	40
30	3037	0.001101128	40
30	3060	0.001110632	40
30	3068	0.001113128	40
30	3093	0.001125128	40
30	3100	0.001130632	40
30	3121	0.001137128	40
30	3132	0.001143008	40
30	3150	0.001149128	40
30	3164	0.001155384	40
30	3182	0.001161128	40
30	3196	0.00116776	40
30	3214	0.001173128	40
30	3228	0.001180136	40
30	3246	0.001185128	40
30	3263	0.001192512	40
30	3292	0.001204888	40
30	3316	0.001217264	40
30	3336	0.00122964	40
30	3351	0.001242016	40
30	3367	0.001254392	40
31	2260	0.000810632	0
31	2269	0.000813128	0
31	2292	0.000822632	0
31	2301	0.000825128	0
31	2324	0.000834632	0
31	2333	0.000837128	0
31	2356	0.000846632	0
31	2365	0.000849128	0
31	2388	0.000858632	0
31	2397	0.000861128	0
31	2420	0.000870632	0
31	2429	0.000873128	0
31	2452	0.000882632	0
31	2461	0.000885128	0
31	2484	0.000894632	0
31	2493	0.000897128	0
31	2516	0.000906632	0
31	2525	0.000909128	0
31	2548	0.000918632	0
31	2557	0.000921128	0
31	2580	0.000930632	0
31	2589	0.000933128	0
31	2612	0.000942632	0
31	2621	0.000945128	0
31	2644	0.000954632	0
31	2653	0.000957128	0
31	2676	0.000966632	0
31	2685	0.000969128	0
31	2708	0.000978632	0
31	2717	0.000981128	0
31	2740	0.000990632	0
31	2749	0.000993128	0
31	2772	0.001002632	0
31	2781	0.001005128	0
31	2804	0.001014632	0
31	2813	0.001017128	0
31	2836	0.001026632	0
31	2845	0.001029128	0
31	2868	0.001038632	0
31	2877	0.001041128	0
31	2900	0.001050632	0
31	2909	0.001053128	0
31	2932	0.001062632	0
31	2941	0.001065128	0
31	2964	0.001074632	0
31	2973	0.001077128	0
31	2996	0.001086632	0
31	3005	0.001089128	0
31	3028	0.001098632	0
31	3037	0.001101128	0
31	3060	0.001110632	0
31	3068	0.001113128	0
31	3093	0.001125128	0
31	3100	0.001130632	0
31	3121	0.001137128	0
31	3132	0.001143008	0
31	3150	0.001149128	0
31	3164	0.001155384	0
31	3182	0.001161128	0
31	3196	0.00116776	0
31	3214	0.001173128	0
31	3228	0.001180136	0
31	3246	0.001185128	0
31	3263	0.001192512	0
31	3292	0.001204888	0
31	3316	0.001217264	0
31	3336	0.00122964	0
31	3351	0.001242016	0
31	3367	0.001254392	0
32	2260	0.000810632	47
32	2269	0.000813128	47
32	2292	0.000822632	47
32	2301	0.000825128	47
32	2324	0.000834632	47
32	2333	0.000837128	47
32	2356	0.000846632	47
32	2365	0.000849128	47
32	2388	0.000858632	47
32	2397	0.000861128	47
32	2420	0.000870632	47
32	2429	0.000873128	47
32	2452	0.000882632	47
32	2461	0.000885128	47
32	2484	0.000894632	47
32	2493	0.000897128	47
32	2516	0.000906632	47
32	2525	0.000909128	47
32	2548	0.000918632	47
32	2557	0.000921128	47
32	2580	0.000930632	47
32	2589	0.000933128	47
32	2612	0.000942632	47
32	2621	0.000945128	47
32	2644	0.000954632	47
32	2653	0.000957128	47
32	2676	0.000966632	47
32	2685	0.000969128	47
32	2708	0.000978632	47
32	2717	0.000981128	47
32	2740	0.000990632	47
32	2749	0.000993128	47
32	2772	0.001002632	47
32	2781	0.001005128	47
32	2804	0.001014632	47
32	2813	0.001017128	47
32	2836	0.001026632	47
32	2845	0.001029128	47
32	2868	0.001038632	47
32	2877	0.001041128	47
32	2900	0.001050632	47
32	2909	0.001053128	47
32	2932	0.001062632	47
32	2941	0.001065128	47
32	2964	0.001074632	47
32	2973	0.001077128	47
32	2996	0.001086632	47
32	3005	0.001089128	47
32	3028	0.001098632	47
32	3037	0.001101128	47
32	3060	0.001110632	47
32	3068	0.001113128	47
32	3093	0.001125128	47
32	3100	0.001130632	47
32	3121	0.001137128	47
32	3132	0.001143008	47
32	3150	0.001149128	47
32	3164	0.001155384	47
32	3182	0.001161128	47
32	3196	0.00116776	47
32	3214	0.001173128	47
32	3228	0.001180136	47
32	3246	0.001185128	47
32	3263	0.001192512	47
32	3292	0.001204888	47
32	3316	0.001217264	47
32	3336	0.00122964	47
32	3351	0.001242016	47
32	3367	0.001254392	47
33	2291	0.000822632	1047
33	2355	0.000846632	1047
33	2419	0.000870632	1047
33	2483	0.000894632	1047
33	2547	0.000918632	1047
33	2611	0.000942632	1047
33	2675	0.000966632	1047
33	2739	0.000990632	1047
33	2803	0.001014632	1047
33	2867	0.001038632	1047
33	2931	0.001062632	1047
33	2995	0.001086632	1047
33	3059	0.001110632	1047
33	3131	0.001143008	1547
33	3195	0.00116776	1547
33	3262	0.001192512	1547
33	3315	0.001217264	1547
33	3350	0.001242016	1547
33	3365	0.001254392	1547
34	2246	0.000809008	47
34	2262	0.000811504	47
34	2278	0.000821008	47
34	2294	0.000823504	47
34	2310	0.000833008	47
34	2326	0.000835504	47
34	2342	0.000845008	47
34	2358	0.000847504	47
34	2374	0.000857008	47
34	2390	0.000859504	47
34	2406	0.000869008	47
34	2422	0.000871504	47
34	2438	0.000881008	47
34	2454	0.000883504	47
34	2470	0.000893008	47
34	2486	0.000895504	47
34	2502	0.000905008	47
34	2518	0.000907504	47
34	2534	0.000917008	47
34	2550	0.000919504	47
34	2566	0.000929008	47
34	2582	0.000931504	47
34	2598	0.000941008	47
34	2614	0.000943504	47
34	2630	0.000953008	47
34	2646	0.000955504	47
34	2662	0.000965008	47
34	2678	0.000967504	47
34	2694	0.000977008	47
34	2710	0.000979504	47
34	2726	0.000989008	47
34	2742	0.000991504	47
34	2758	0.001001008	47
34	2774	0.001003504	47
34	2790	0.001013008	47
34	2806	0.001015504	47
34	2822	0.001025008	47
34	2838	0.001027504	47
34	2854	0.001037008	47
34	2870	0.001039504	47
34	2886	0.001049008	47
34	2902	0.001051504	47
34	2918	0.001061008	47
34	2934	0.001063504	47
34	2950	0.001073008	47
34	2966	0.001075504	47
34	2982	0.001085008	47
34	2998	0.001087504	47
34	3013	0.001097008	47
34	3030	0.001099504	47
34	3045	0.001109008	47
34	3062	0.001111504	47
34	3077	0.001121008	47
34	3087	0.001123504	47
34	3115	0.001135504	47
34	3123	0.001141008	47
34	3144	0.001147504	47
34	3155	0.001153384	47
34	3176	0.001159504	47
34	3187	0.00116576	47
34	3208	0.001171504	47
34	3219	0.001178136	47
34	3240	0.001183504	47
34	3251	0.001190512	47
34	3272	0.001195504	47
34	3280	0.001202888	47
34	3304	0.001215264	47
34	3323	0.00122764	47
34	3342	0.001240016	47
34	3357	0.001252392	47
34	3372	0.001264768	47
35	2246	0.000809008	40
35	2262	0.000811504	40
35	2278	0.000821008	40
35	2294	0.000823504	40
35	2310	0.000833008	40
35	2326	0.000835504	40
35	2342	0.000845008	40
35	2358	0.000847504	40
35	2374	0.000857008	40
35	2390	0.000859504	40
35	2406	0.000869008	40
35	2422	0.000871504	40
35	2438	0.000881008	40
35	2454	0.000883504	40
35	2470	0.000893008	40
35	2486	0.000895504	40
35	2502	0.000905008	40
35	2518	0.000907504	40
35	2534	0.000917008	40
35	2550	0.000919504	40
35	2566	0.000929008	40
35	2582	0.000931504	40
35	2598	0.000941008	40
35	2614	0.000943504	40
35	2630	0.000953008	40
35	2646	0.000955504	40
35	2662	0.000965008	40
35	2678	0.000967504	40
35	2694	0.000977008	40
35	2710	0.000979504	40
35	2726	0.000989008	40
35	2742	0.000991504	40
35	2758	0.001001008	40
35	2774	0.001003504	40
35	2790	0.001013008	40
35	2806	0.001015504	40
35	2822	0.001025008	40
35	2838	0.001027504	40
35	2854	0.001037008	40
35	2870	0.001039504	40
35	2886	0.001049008	40
35	2902	0.001051504	40
35	2918	0.001061008	40
35	2934	0.001063504	40
35	2950	0.001073008	40
35	2966	0.001075504	40
35	2982	0.001085008	40
35	2998	0.001087504	40
35	3013	0.001097008	40
35	3030	0.001099504	40
35	3045	0.001109008	40
35	3062	0.001111504	40
35	3077	0.001121008	40
35	3087	0.001123504	40
35	3115	0.001135504	40
35	3123	0.001141008	40
35	3144	0.001147504	40
35	3155	0.001153384	40
35	3176	0.001159504	40
35	3187	0.00116576	40
35	3208	0.001171504	40
35	3219	0.001178136	40
35	3240	0.001183504	40
35	3251	0.001190512	40
35	3272	0.001195504	40
35	3280	0.001202888	40
35	3304	0.001215264	40
35	3323	0.00122764	40
35	3342	0.001240016	40
35	3357	0.001252392	40
35	3372	0.001264768	40
36	2264	0.000811504	40
36	2280	0.000821008	40
36	2328	0.000835504	40
36	2344	0.000845008	40
36	2392	0.000859504	40
36	2408	0.000869008	40
36	2456	0.000883504	40
36	2472	0.000893008	40
36	2520	0.000907504	40
36	2536	0.000917008	40
36	2584	0.000931504	40
36	2600	0.000941008	40
36	2648	0.000955504	40
36	2664	0.000965008	40
36	2712	0.000979504	40
36	2728	0.000989008	40
36	2776	0.001003504	40
36	2792	0.001013008	40
36	2840	0.001027504	40
36	2856	0.001037008	40
36	2904	0.001051504	40
36	2920	0.001061008	40
36	2968	0.001075504	40
36	2984	0.001085008	40
36	3032	0.001099504	40
36	3047	0.001109008	40
36	3089	0.001123504	40
36	3125	0.001141008	40
36	3146	0.001147504	40
36	3189	0.00116576	40
36	3210	0.001171504	40
36	3253	0.001190512	40
36	3306	0.001215264	40
36	3344	0.001240016	40
37	2264	0.000811504	47
37	2280	0.000821008	47
37	2328	0.000835504	47
37	2344	0.000845008	47
37	2392	0.000859504	47
37	2408	0.000869008	47
37	2456	0.000883504	47
37	2472	0.000893008	47
37	2520	0.000907504	47
37	2536	0.000917008	47
37	2584	0.000931504	47
37	2600	0.000941008	47
37	2648	0.000955504	47
37	2664	0.000965008	47
37	2712	0.000979504	47
37	2728	0.000989008	47
37	2776	0.001003504	47
37	2792	0.001013008	47
37	2840	0.001027504	47
37	2856	0.001037008	47
37	2904	0.001051504	47
37	2920	0.001061008	47
37	2968	0.001075504	47
37	2984	0.001085008	47
37	3032	0.001099504	47
37	3047	0.001109008	47
37	3089	0.001123504	47
37	3125	0.001141008	47
37	3146	0.001147504	47
37	3189	0.00116576	47
37	3210	0.001171504	47
37	3253	0.001190512	47
37	3306	0.001215264	47
37	3344	0.001240016	47
38	2248	0.000809008	40
38	2296	0.000823504	40
38	2312	0.000833008	40
38	2360	0.000847504	40
38	2376	0.000857008	40
38	2424	0.000871504	40
38	2440	0.000881008	40
38	2488	0.000895504	40
38	2504	0.000905008	40
38	2552	0.000919504	40
38	2568	0.000929008	40
38	2616	0.000943504	40
38	2632	0.000953008	40
38	2680	0.000967504	40
38	2696	0.000977008	40
38	2744	0.000991504	40
38	2760	0.001001008	40
38	2808	0.001015504	40
38	2824	0.001025008	40
38	2872	0.001039504	40
38	2888	0.001049008	40
38	2936	0.001063504	40
38	2952	0.001073008	40
38	3000	0.001087504	40
38	3015	0.001097008	40
38	3064	0.001111504	40
38	3079	0.001121008	40
38	3117	0.001135504	40
38	3157	0.001153384	40
38	3178	0.001159504	40
38	3221	0.001178136	40
38	3242	0.001183504	40
38	3274	0.001195504	40
38	3282	0.001202888	40
38	3325	0.00122764	40
38	3359	0.001252392	40
38	3374	0.001264768	40
39	2248	0.000809008	47
39	2296	0.000823504	47
39	2312	0.000833008	47
39	2360	0.000847504	47
39	2376	0.000857008	47
39	2424	0.000871504	47
39	2440	0.000881008	47
39	2488	0.000895504	47
39	2504	0.000905008	47
39	2552	0.000919504	47
39	2568	0.000929008	47
39	2616	0.000943504	47
39	2632	0.000953008	47
39	2680	0.000967504	47
39	2696	0.000977008	47
39	2744	0.000991504	47
39	2760	0.001001008	47
39	2808	0.001015504	47
39	2824	0.001025008	47
39	2872	0.001039504	47
39	2888	0.001049008	47
39	2936	0.001063504	47
39	2952	0.001073008	47
39	3000	0.001087504	47
39	3015	0.001097008	47
39	3064	0.001111504	47
39	3079	0.001121008	47
39	3117	0.001135504	47
39	3157	0.001153384	47
39	3178	0.001159504	47
39	3221	0.001178136	47
39	3242	0.001183504	47
39	3274	0.001195504	47
39	3282	0.001202888	47
39	3325	0.00122764	47
39	3359	0.001252392	47
39	3374	0.001264768	47
40	2282	0.00082188	47
40	2307	0.000831384	47
40	2346	0.00084588	47
40	2371	0.000855384	47
40	2410	0.00086988	47
40	2435	0.000879384	47
40	2474	0.00089388	47
40	2499	0.000903384	47
40	2538	0.00091788	47
40	2563	0.000927384	47
40	2602	0.00094188	47
40	2627	0.000951384	47
40	2666	0.00096588	47
40	2691	0.000975384	47
40	2730	0.00098988	47
40	2755	0.000999384	47
40	2794	0.00101388	47
40	2819	0.001023384	47
40	2858	0.00103788	47
40	2883	0.001047384	47
40	2922	0.00106188	47
40	2947	0.001071384	47
40	2986	0.00108588	47
40	3010	0.001095384	47
40	3049	0.00110988	47
40	3070	0.001119384	47
40	3109	0.00113388	47
40	3152	0.001151384	47
40	3170	0.00115788	47
40	3216	0.001176136	47
40	3233	0.00118188	47
40	3277	0.001200888	47
40	3320	0.00122564	47
40	3354	0.001250392	47
41	2282	0.00082188	40
41	2307	0.000831384	40
41	2346	0.00084588	40
41	2371	0.000855384	40
41	2410	0.00086988	40
41	2435	0.000879384	40
41	2474	0.00089388	40
41	2499	0.000903384	40
41	2538	0.00091788	40
41	2563	0.000927384	40
41	2602	0.00094188	40
41	2627	0.000951384	40
41	2666	0.00096588	40
41	2691	0.000975384	40
41	2730	0.00098988	40
41	2755	0.000999384	40
41	2794	0.00101388	40
41	2819	0.001023384	40
41	2858	0.00103788	40
41	2883	0.001047384	40
41	2922	0.00106188	40
41	2947	0.001071384	40
41	2986	0.00108588	40
41	3010	0.001095384	40
41	3049	0.00110988	40
41	3070	0.001119384	40
41	3109	0.00113388	40
41	3152	0.001151384	40
41	3170	0.00115788	40
41	3216	0.001176136	40
41	3233	0.00118188	40
41	3277	0.001200888	40
41	3320	0.00122564	40
41	3354	0.001250392	40
42	2250	0.00080988	47
42	2275	0.000819384	47
42	2314	0.00083388	47
42	2339	0.000843384	47
42	2378	0.00085788	47
42	2403	0.000867384	47
42	2442	0.00088188	47
42	2467	0.000891384	47
42	2506	0.00090588	47
42	2531	0.000915384	47
42	2570	0.00092988	47
42	2595	0.000939384	47
42	2634	0.00095388	47
42	2659	0.000963384	47
42	2698	0.00097788	47
42	2723	0.000987384	47
42	2762	0.00100188	47
42	2787	0.001011384	47
42	2826	0.00102588	47
42	2851	0.001035384	47
42	2890	0.00104988	47
42	2915	0.001059384	47
42	2954	0.00107388	47
42	2979	0.001083384	47
42	3017	0.00109788	47
42	3039	0.001107384	47
42	3081	0.00112188	47
42	3102	0.001131384	47
42	3138	0.00114588	47
42	3184	0.00116376	47
42	3201	0.00116988	47
42	3248	0.001188512	47
42	3265	0.00119388	47
42	3294	0.00120588	47
42	3301	0.001213264	47
42	3339	0.001238016	47
42	3369	0.001262768	47
42	3376	0.001275144	47
43	2250	0.00080988	40
43	2275	0.000819384	40
43	2314	0.00083388	40
43	2339	0.000843384	40
43	2378	0.00085788	40
43	2403	0.000867384	40
43	2442	0.00088188	40
43	2467	0.000891384	40
43	2506	0.00090588	40
43	2531	0.000915384	40
43	2570	0.00092988	40
43	2595	0.000939384	40
43	2634	0.00095388	40
43	2659	0.000963384	40
43	2698	0.00097788	40
43	2723	0.000987384	40
43	2762	0.00100188	40
43	2787	0.001011384	40
43	2826	0.00102588	40
43	2851	0.001035384	40
43	2890	0.00104988	40
43	2915	0.001059384	40
43	2954	0.00107388	40
43	2979	0.001083384	40
43	3017	0.00109788	40
43	3039	0.001107384	40
43	3081	0.00112188	40
43	3102	0.001131384	40
43	3138	0.00114588	40
43	3184	0.00116376	40
43	3201	0.00116988	40
43	3248	0.001188512	40
43	3265	0.00119388	40
43	3294	0.00120588	40
43	3301	0.001213264	40
43	3339	0.001238016	40
43	3369	0.001262768	40
43	3376	0.001275144	40

