version 2
run General-0-20211019-12:02:28-47068
attr configname General
attr datetime 20211019-12:02:28
attr experiment General
attr inifile omnetpp.ini
attr iterationvars ""
attr iterationvarsf ""
attr measurement ""
attr network simplenetwork
attr processid 47068
attr repetition 0
attr replication #0
attr resultdir results
attr runnumber 0
attr seedset 0
param **.ndp.typename "\"Ndp\""
param **.client.ndp.ndpAlgorithmClass "\"DumbNDP\""
param **.client2.ndp.ndpAlgorithmClass "\"DumbNDP\""
param **.server.ndp.ndpAlgorithmClass "\"DumbNDP\""
param **.ndp.mss 1000
param **.client.numApps 1
param **.client.app[*].typename "\"NdpBasicClientApp\""
param **.client.app[*].localAddress "\"client\""
param **.client.app[*].localPort -1
param **.client.app[*].connectAddress "\"server\""
param **.client.app[0].connectPort 80
param **.client.app[*].startTime 0s
param **.client.app[*].idleInterval 10s
param **.client.app[*].isLongFlow false
param **.client.app[*].numPacketsToSend 50
param **.client.ppp[*].queue.typename "\"\""
param **.client2.numApps 1
param **.client2.app[*].typename "\"NdpBasicClientApp\""
param **.client2.app[*].localAddress "\"client2\""
param **.client2.app[*].localPort -1
param **.client2.app[*].connectAddress "\"server\""
param **.client2.app[0].connectPort 81
param **.client2.app[*].startTime 0s
param **.client2.app[*].idleInterval 10s
param **.client2.app[*].isLongFlow false
param **.client2.app[*].numPacketsToSend 50
param **.client2.ppp[*].queue.typename "\"\""
param **.initialWindow 8
param **.server.numApps 2
param **.server.app[*].typename "\"NdpSinkApp\""
param **.server.app[*].localAddress "\"server\""
param **.server.app[0].localPort 80
param **.server.app[1].localPort 81
param myexample.router.ppp[*].ppp.queue.typename "\"NDPQueue\""
param myexample.router.ppp[*].ppp.queue.packetCapacity 3
param **.networkLayer.configurator.networkConfiguratorModule "\"\""

vector 0 simplenetwork.client.ppp[0].ppp transmissionState:vector ETV
attr interpolationmode sample-hold
attr source transmissionStateChanged
attr title "tx state, vector"
vector 1 simplenetwork.client2.ppp[0].ppp transmissionState:vector ETV
attr interpolationmode sample-hold
attr source transmissionStateChanged
attr title "tx state, vector"
vector 2 simplenetwork.server.ppp[0].ppp transmissionState:vector ETV
attr interpolationmode sample-hold
attr source transmissionStateChanged
attr title "tx state, vector"
vector 3 simplenetwork.router.ppp[0].ppp transmissionState:vector ETV
attr interpolationmode sample-hold
attr source transmissionStateChanged
attr title "tx state, vector"
vector 4 simplenetwork.router.ppp[1].ppp transmissionState:vector ETV
attr interpolationmode sample-hold
attr source transmissionStateChanged
attr title "tx state, vector"
vector 5 simplenetwork.router.ppp[2].ppp transmissionState:vector ETV
attr interpolationmode sample-hold
attr source transmissionStateChanged
attr title "tx state, vector"
vector 6 simplenetwork.client.ppp[0].ppp rcvdPkFromHl:vector(packetBytes) ETV
attr interpolationmode none
attr source packetReceivedFromUpper
attr title "packets received from higher layer, vector(packetBytes)"
vector 7 simplenetwork.client.ppp[0].ppp.queue packetPushed:vector(packetBytes) ETV
attr interpolationmode none
attr title "packet pushed, vector(packetBytes)"
vector 8 simplenetwork.client.ppp[0].ppp.queue queueLength:vector ETV
attr interpolationmode sample-hold
attr source "count(packetPushed) - count(packetPopped) - count(packetRemoved) - count(packetDropped)"
attr title "queue length, vector"
vector 9 simplenetwork.client.ppp[0].ppp.queue packetPopped:vector(packetBytes) ETV
attr interpolationmode none
attr title "packet popped, vector(packetBytes)"
vector 10 simplenetwork.client.ppp[0].ppp.queue queueingTime:vector ETV
attr interpolationmode none
attr source queueingTime(packetPopped)
attr title "queueing times, vector"
attr unit s
vector 11 simplenetwork.client.ppp[0].ppp txPk:vector(packetBytes) ETV
attr interpolationmode none
attr source packetSentToLower
attr title "packets transmitted, vector(packetBytes)"
vector 12 simplenetwork.client2.ppp[0].ppp rcvdPkFromHl:vector(packetBytes) ETV
attr interpolationmode none
attr source packetReceivedFromUpper
attr title "packets received from higher layer, vector(packetBytes)"
vector 13 simplenetwork.client2.ppp[0].ppp.queue packetPushed:vector(packetBytes) ETV
attr interpolationmode none
attr title "packet pushed, vector(packetBytes)"
vector 14 simplenetwork.client2.ppp[0].ppp.queue queueLength:vector ETV
attr interpolationmode sample-hold
attr source "count(packetPushed) - count(packetPopped) - count(packetRemoved) - count(packetDropped)"
attr title "queue length, vector"
vector 15 simplenetwork.client2.ppp[0].ppp.queue packetPopped:vector(packetBytes) ETV
attr interpolationmode none
attr title "packet popped, vector(packetBytes)"
vector 16 simplenetwork.client2.ppp[0].ppp.queue queueingTime:vector ETV
attr interpolationmode none
attr source queueingTime(packetPopped)
attr title "queueing times, vector"
attr unit s
vector 17 simplenetwork.client2.ppp[0].ppp txPk:vector(packetBytes) ETV
attr interpolationmode none
attr source packetSentToLower
attr title "packets transmitted, vector(packetBytes)"
vector 18 simplenetwork.router.ppp[1].ppp rxPkOk:vector(packetBytes) ETV
attr interpolationmode none
attr source rxPkOk
attr title "packets received OK, vector(packetBytes)"
vector 19 simplenetwork.router.ppp[1].ppp passedUpPk:vector(packetBytes) ETV
attr interpolationmode none
attr source packetSentToUpper
attr title "packets passed to higher layer, vector(packetBytes)"
vector 20 simplenetwork.router.ppp[2].ppp rxPkOk:vector(packetBytes) ETV
attr interpolationmode none
attr source rxPkOk
attr title "packets received OK, vector(packetBytes)"
vector 21 simplenetwork.router.ppp[2].ppp passedUpPk:vector(packetBytes) ETV
attr interpolationmode none
attr source packetSentToUpper
attr title "packets passed to higher layer, vector(packetBytes)"
vector 22 simplenetwork.router.ppp[0].ppp rcvdPkFromHl:vector(packetBytes) ETV
attr interpolationmode none
attr source packetReceivedFromUpper
attr title "packets received from higher layer, vector(packetBytes)"
vector 23 simplenetwork.router.ppp[0].ppp.queue packetPushed:vector(packetBytes) ETV
attr interpolationmode none
attr title "packet pushed, vector(packetBytes)"
vector 24 simplenetwork.router.ppp[0].ppp.queue queueLength:vector ETV
attr interpolationmode sample-hold
attr source "count(packetPushed) - count(packetPopped) - count(packetRemoved) - count(packetDropped)"
attr title "queue length, vector"
vector 25 simplenetwork.router.ppp[0].ppp.queue packetPopped:vector(packetBytes) ETV
attr interpolationmode none
attr title "packet popped, vector(packetBytes)"
vector 26 simplenetwork.router.ppp[0].ppp.queue queueingTime:vector ETV
attr interpolationmode none
attr source queueingTime(packetPopped)
attr title "queueing times, vector"
attr unit s
vector 27 simplenetwork.router.ppp[0].ppp txPk:vector(packetBytes) ETV
attr interpolationmode none
attr source packetSentToLower
attr title "packets transmitted, vector(packetBytes)"
vector 28 simplenetwork.server.ppp[0].ppp rxPkOk:vector(packetBytes) ETV
attr interpolationmode none
attr source rxPkOk
attr title "packets received OK, vector(packetBytes)"
vector 29 simplenetwork.server.ppp[0].ppp passedUpPk:vector(packetBytes) ETV
attr interpolationmode none
attr source packetSentToUpper
attr title "packets passed to higher layer, vector(packetBytes)"
vector 30 simplenetwork.server.app[0] packetReceived:vector(packetBytes) ETV
attr interpolationmode none
attr source packetReceived
attr title "packets (symbols) received, vector(packetBytes)"
vector 31 simplenetwork.server.app[0] instThroughputNDP:vector ETV
attr source throughputA(packetReceived)
attr title "instThroughputNDP, vector"
attr unit bps
vector 32 simplenetwork.server.ppp[0].ppp rcvdPkFromHl:vector(packetBytes) ETV
attr interpolationmode none
attr source packetReceivedFromUpper
attr title "packets received from higher layer, vector(packetBytes)"
vector 33 simplenetwork.server.ppp[0].ppp.queue packetPushed:vector(packetBytes) ETV
attr interpolationmode none
attr title "packet pushed, vector(packetBytes)"
vector 34 simplenetwork.server.ppp[0].ppp.queue queueLength:vector ETV
attr interpolationmode sample-hold
attr source "count(packetPushed) - count(packetPopped) - count(packetRemoved) - count(packetDropped)"
attr title "queue length, vector"
vector 35 simplenetwork.server.ppp[0].ppp.queue packetPopped:vector(packetBytes) ETV
attr interpolationmode none
attr title "packet popped, vector(packetBytes)"
vector 36 simplenetwork.server.ppp[0].ppp.queue queueingTime:vector ETV
attr interpolationmode none
attr source queueingTime(packetPopped)
attr title "queueing times, vector"
attr unit s
vector 37 simplenetwork.server.ppp[0].ppp txPk:vector(packetBytes) ETV
attr interpolationmode none
attr source packetSentToLower
attr title "packets transmitted, vector(packetBytes)"
vector 38 simplenetwork.router.ppp[0].ppp rxPkOk:vector(packetBytes) ETV
attr interpolationmode none
attr source rxPkOk
attr title "packets received OK, vector(packetBytes)"
vector 39 simplenetwork.router.ppp[0].ppp passedUpPk:vector(packetBytes) ETV
attr interpolationmode none
attr source packetSentToUpper
attr title "packets passed to higher layer, vector(packetBytes)"
vector 40 simplenetwork.router.ppp[1].ppp rcvdPkFromHl:vector(packetBytes) ETV
attr interpolationmode none
attr source packetReceivedFromUpper
attr title "packets received from higher layer, vector(packetBytes)"
vector 41 simplenetwork.router.ppp[1].ppp.queue packetPushed:vector(packetBytes) ETV
attr interpolationmode none
attr title "packet pushed, vector(packetBytes)"
vector 42 simplenetwork.router.ppp[1].ppp.queue queueLength:vector ETV
attr interpolationmode sample-hold
attr source "count(packetPushed) - count(packetPopped) - count(packetRemoved) - count(packetDropped)"
attr title "queue length, vector"
vector 43 simplenetwork.router.ppp[1].ppp.queue packetPopped:vector(packetBytes) ETV
attr interpolationmode none
attr title "packet popped, vector(packetBytes)"
vector 44 simplenetwork.router.ppp[1].ppp.queue queueingTime:vector ETV
attr interpolationmode none
attr source queueingTime(packetPopped)
attr title "queueing times, vector"
attr unit s
vector 45 simplenetwork.router.ppp[1].ppp txPk:vector(packetBytes) ETV
attr interpolationmode none
attr source packetSentToLower
attr title "packets transmitted, vector(packetBytes)"
vector 46 simplenetwork.server.app[1] packetReceived:vector(packetBytes) ETV
attr interpolationmode none
attr source packetReceived
attr title "packets (symbols) received, vector(packetBytes)"
vector 47 simplenetwork.server.app[1] instThroughputNDP:vector ETV
attr source throughputA(packetReceived)
attr title "instThroughputNDP, vector"
attr unit bps
vector 48 simplenetwork.client.ppp[0].ppp rxPkOk:vector(packetBytes) ETV
attr interpolationmode none
attr source rxPkOk
attr title "packets received OK, vector(packetBytes)"
vector 49 simplenetwork.client.ppp[0].ppp passedUpPk:vector(packetBytes) ETV
attr interpolationmode none
attr source packetSentToUpper
attr title "packets passed to higher layer, vector(packetBytes)"
vector 50 simplenetwork.router.ppp[2].ppp rcvdPkFromHl:vector(packetBytes) ETV
attr interpolationmode none
attr source packetReceivedFromUpper
attr title "packets received from higher layer, vector(packetBytes)"
vector 51 simplenetwork.router.ppp[2].ppp.queue packetPushed:vector(packetBytes) ETV
attr interpolationmode none
attr title "packet pushed, vector(packetBytes)"
vector 52 simplenetwork.router.ppp[2].ppp.queue queueLength:vector ETV
attr interpolationmode sample-hold
attr source "count(packetPushed) - count(packetPopped) - count(packetRemoved) - count(packetDropped)"
attr title "queue length, vector"
vector 53 simplenetwork.router.ppp[2].ppp.queue packetPopped:vector(packetBytes) ETV
attr interpolationmode none
attr title "packet popped, vector(packetBytes)"
vector 54 simplenetwork.router.ppp[2].ppp.queue queueingTime:vector ETV
attr interpolationmode none
attr source queueingTime(packetPopped)
attr title "queueing times, vector"
attr unit s
vector 55 simplenetwork.router.ppp[2].ppp txPk:vector(packetBytes) ETV
attr interpolationmode none
attr source packetSentToLower
attr title "packets transmitted, vector(packetBytes)"
vector 56 simplenetwork.client2.ppp[0].ppp rxPkOk:vector(packetBytes) ETV
attr interpolationmode none
attr source rxPkOk
attr title "packets received OK, vector(packetBytes)"
vector 57 simplenetwork.client2.ppp[0].ppp passedUpPk:vector(packetBytes) ETV
attr interpolationmode none
attr source packetSentToUpper
attr title "packets passed to higher layer, vector(packetBytes)"
0	0	0	0
0	27	0	1
0	43	0.000012	0
0	43	0.000012	1
0	51	0.000024	0
0	51	0.000024	1
0	60	0.000036	0
0	60	0.000036	1
0	76	0.000048	0
0	76	0.000048	1
0	100	0.00006	0
0	100	0.00006	1
0	131	0.000072	0
0	131	0.000072	1
0	167	0.000084	0
0	167	0.000084	1
0	203	0.000096	0
0	203	0.000096	1
0	239	0.000108	0
0	239	0.000108	1
0	275	0.00012	0
0	281	0.000124752	1
0	311	0.000136752	0
0	348	0.000148752	1
0	375	0.000160752	0
0	412	0.000172752	1
0	439	0.000184752	0
0	476	0.000196752	1
0	503	0.000208752	0
0	540	0.000220752	1
0	567	0.000232752	0
0	604	0.000244752	1
0	631	0.000256752	0
0	668	0.000268752	1
0	695	0.000280752	0
0	732	0.000292752	1
0	759	0.000304752	0
0	796	0.000316752	1
0	823	0.000328752	0
0	860	0.000340752	1
0	887	0.000352752	0
0	924	0.000364752	1
0	951	0.000376752	0
0	988	0.000388752	1
0	1015	0.000400752	0
0	1052	0.000412752	1
0	1079	0.000424752	0
0	1116	0.000436752	1
0	1143	0.000448752	0
0	1180	0.000460752	1
0	1207	0.000472752	0
0	1244	0.000484752	1
0	1271	0.000496752	0
0	1308	0.000508752	1
0	1335	0.000520752	0
0	1372	0.000532752	1
0	1399	0.000544752	0
0	1436	0.000556752	1
0	1463	0.000568752	0
0	1500	0.000580752	1
0	1527	0.000592752	0
0	1564	0.000604752	1
0	1591	0.000616752	0
0	1628	0.000628752	1
0	1655	0.000640752	0
0	1692	0.000652752	1
0	1719	0.000664752	0
0	1756	0.000676752	1
0	1783	0.000688752	0
0	1820	0.000700752	1
0	1847	0.000712752	0
0	1884	0.000724752	1
0	1911	0.000736752	0
0	1948	0.000748752	1
0	1975	0.000760752	0
0	2012	0.000772752	1
0	2039	0.000784752	0
0	2076	0.000796752	1
0	2103	0.000808752	0
0	2140	0.000820752	1
0	2167	0.000832752	0
0	2204	0.000844752	1
0	2231	0.000856752	0
0	2268	0.000868752	1
0	2295	0.000880752	0
0	2332	0.000892752	1
0	2359	0.000904752	0
0	2396	0.000916752	1
0	2423	0.000928752	0
0	2460	0.000940752	1
0	2487	0.000952752	0
0	2524	0.000964752	1
0	2551	0.000976752	0
0	2588	0.000988752	1
0	2615	0.001000752	0
0	2652	0.001012752	1
0	2679	0.001024752	0
0	2716	0.001036752	1
0	2743	0.001048752	0
0	2780	0.001060752	1
0	2804	0.001072752	0
1	0	0	0
1	35	0	1
1	44	0.000012	0
1	44	0.000012	1
1	52	0.000024	0
1	52	0.000024	1
1	61	0.000036	0
1	61	0.000036	1
1	77	0.000048	0
1	77	0.000048	1
1	101	0.00006	0
1	101	0.00006	1
1	132	0.000072	0
1	132	0.000072	1
1	168	0.000084	0
1	168	0.000084	1
1	204	0.000096	0
1	204	0.000096	1
1	240	0.000108	0
1	245	0.000112752	1
1	276	0.000124752	0
1	316	0.000136752	1
1	343	0.000148752	0
1	380	0.000160752	1
1	407	0.000172752	0
1	444	0.000184752	1
1	471	0.000196752	0
1	508	0.000208752	1
1	535	0.000220752	0
1	572	0.000232752	1
1	599	0.000244752	0
1	636	0.000256752	1
1	663	0.000268752	0
1	700	0.000280752	1
1	727	0.000292752	0
1	764	0.000304752	1
1	791	0.000316752	0
1	828	0.000328752	1
1	855	0.000340752	0
1	892	0.000352752	1
1	919	0.000364752	0
1	956	0.000376752	1
1	983	0.000388752	0
1	1020	0.000400752	1
1	1047	0.000412752	0
1	1084	0.000424752	1
1	1111	0.000436752	0
1	1148	0.000448752	1
1	1175	0.000460752	0
1	1212	0.000472752	1
1	1239	0.000484752	0
1	1276	0.000496752	1
1	1303	0.000508752	0
1	1340	0.000520752	1
1	1367	0.000532752	0
1	1404	0.000544752	1
1	1431	0.000556752	0
1	1468	0.000568752	1
1	1495	0.000580752	0
1	1532	0.000592752	1
1	1559	0.000604752	0
1	1596	0.000616752	1
1	1623	0.000628752	0
1	1660	0.000640752	1
1	1687	0.000652752	0
1	1724	0.000664752	1
1	1751	0.000676752	0
1	1788	0.000688752	1
1	1815	0.000700752	0
1	1852	0.000712752	1
1	1879	0.000724752	0
1	1916	0.000736752	1
1	1943	0.000748752	0
1	1980	0.000760752	1
1	2007	0.000772752	0
1	2044	0.000784752	1
1	2071	0.000796752	0
1	2108	0.000808752	1
1	2135	0.000820752	0
1	2172	0.000832752	1
1	2199	0.000844752	0
1	2236	0.000856752	1
1	2263	0.000868752	0
1	2300	0.000880752	1
1	2327	0.000892752	0
1	2364	0.000904752	1
1	2391	0.000916752	0
1	2428	0.000928752	1
1	2455	0.000940752	0
1	2492	0.000952752	1
1	2519	0.000964752	0
1	2556	0.000976752	1
1	2583	0.000988752	0
1	2620	0.001000752	1
1	2647	0.001012752	0
1	2684	0.001024752	1
1	2711	0.001036752	0
1	2748	0.001048752	1
1	2775	0.001060752	0
1	2809	0.001072752	1
1	2828	0.001084752	0
2	0	0	0
2	67	0.000044	1
2	68	0.000044376	0
2	87	0.000056	1
2	91	0.000056376	0
2	91	0.000056376	1
2	92	0.000056752	0
2	118	0.000068	1
2	122	0.000068376	0
2	122	0.000068376	1
2	123	0.000068752	0
2	154	0.00008	1
2	158	0.000080376	0
2	158	0.000080376	1
2	159	0.000080752	0
2	190	0.000092	1
2	194	0.000092376	0
2	194	0.000092376	1
2	195	0.000092752	0
2	226	0.000104	1
2	230	0.000104376	0
2	230	0.000104376	1
2	231	0.000104752	0
2	262	0.000116	1
2	266	0.000116376	0
2	266	0.000116376	1
2	267	0.000116752	0
2	298	0.000128	1
2	302	0.000128376	0
2	302	0.000128376	1
2	303	0.000128752	0
2	333	0.00014	1
2	337	0.000140376	0
2	337	0.000140376	1
2	338	0.000140752	0
2	365	0.000152	1
2	369	0.000152376	0
2	369	0.000152376	1
2	370	0.000152752	0
2	397	0.000164	1
2	401	0.000164376	0
2	401	0.000164376	1
2	402	0.000164752	0
2	429	0.000176	1
2	433	0.000176376	0
2	433	0.000176376	1
2	434	0.000176752	0
2	461	0.000188	1
2	465	0.000188376	0
2	465	0.000188376	1
2	466	0.000188752	0
2	493	0.0002	1
2	497	0.000200376	0
2	497	0.000200376	1
2	498	0.000200752	0
2	525	0.000212	1
2	529	0.000212376	0
2	529	0.000212376	1
2	530	0.000212752	0
2	557	0.000224	1
2	561	0.000224376	0
2	561	0.000224376	1
2	562	0.000224752	0
2	589	0.000236	1
2	593	0.000236376	0
2	593	0.000236376	1
2	594	0.000236752	0
2	621	0.000248	1
2	625	0.000248376	0
2	625	0.000248376	1
2	626	0.000248752	0
2	653	0.00026	1
2	657	0.000260376	0
2	657	0.000260376	1
2	658	0.000260752	0
2	685	0.000272	1
2	689	0.000272376	0
2	689	0.000272376	1
2	690	0.000272752	0
2	717	0.000284	1
2	721	0.000284376	0
2	721	0.000284376	1
2	722	0.000284752	0
2	749	0.000296	1
2	753	0.000296376	0
2	753	0.000296376	1
2	754	0.000296752	0
2	781	0.000308	1
2	785	0.000308376	0
2	785	0.000308376	1
2	786	0.000308752	0
2	813	0.00032	1
2	817	0.000320376	0
2	817	0.000320376	1
2	818	0.000320752	0
2	845	0.000332	1
2	849	0.000332376	0
2	849	0.000332376	1
2	850	0.000332752	0
2	877	0.000344	1
2	881	0.000344376	0
2	881	0.000344376	1
2	882	0.000344752	0
2	909	0.000356	1
2	913	0.000356376	0
2	913	0.000356376	1
2	914	0.000356752	0
2	941	0.000368	1
2	945	0.000368376	0
2	945	0.000368376	1
2	946	0.000368752	0
2	973	0.00038	1
2	977	0.000380376	0
2	977	0.000380376	1
2	978	0.000380752	0
2	1005	0.000392	1
2	1009	0.000392376	0
2	1009	0.000392376	1
2	1010	0.000392752	0
2	1037	0.000404	1
2	1041	0.000404376	0
2	1041	0.000404376	1
2	1042	0.000404752	0
2	1069	0.000416	1
2	1073	0.000416376	0
2	1073	0.000416376	1
2	1074	0.000416752	0
2	1101	0.000428	1
2	1105	0.000428376	0
2	1105	0.000428376	1
2	1106	0.000428752	0
2	1133	0.00044	1
2	1137	0.000440376	0
2	1137	0.000440376	1
2	1138	0.000440752	0
2	1165	0.000452	1
2	1169	0.000452376	0
2	1169	0.000452376	1
2	1170	0.000452752	0
2	1197	0.000464	1
2	1201	0.000464376	0
2	1201	0.000464376	1
2	1202	0.000464752	0
2	1229	0.000476	1
2	1233	0.000476376	0
2	1233	0.000476376	1
2	1234	0.000476752	0
2	1261	0.000488	1
2	1265	0.000488376	0
2	1265	0.000488376	1
2	1266	0.000488752	0
2	1293	0.0005	1
2	1297	0.000500376	0
2	1297	0.000500376	1
2	1298	0.000500752	0
2	1325	0.000512	1
2	1329	0.000512376	0
2	1329	0.000512376	1
2	1330	0.000512752	0
2	1357	0.000524	1
2	1361	0.000524376	0
2	1361	0.000524376	1
2	1362	0.000524752	0
2	1389	0.000536	1
2	1393	0.000536376	0
2	1393	0.000536376	1
2	1394	0.000536752	0
2	1421	0.000548	1
2	1425	0.000548376	0
2	1425	0.000548376	1
2	1426	0.000548752	0
2	1453	0.00056	1
2	1457	0.000560376	0
2	1457	0.000560376	1
2	1458	0.000560752	0
2	1485	0.000572	1
2	1489	0.000572376	0
2	1489	0.000572376	1
2	1490	0.000572752	0
2	1517	0.000584	1
2	1521	0.000584376	0
2	1521	0.000584376	1
2	1522	0.000584752	0
2	1549	0.000596	1
2	1553	0.000596376	0
2	1553	0.000596376	1
2	1554	0.000596752	0
2	1581	0.000608	1
2	1585	0.000608376	0
2	1585	0.000608376	1
2	1586	0.000608752	0
2	1613	0.00062	1
2	1617	0.000620376	0
2	1617	0.000620376	1
2	1618	0.000620752	0
2	1645	0.000632	1
2	1649	0.000632376	0
2	1649	0.000632376	1
2	1650	0.000632752	0
2	1677	0.000644	1
2	1681	0.000644376	0
2	1681	0.000644376	1
2	1682	0.000644752	0
2	1709	0.000656	1
2	1713	0.000656376	0
2	1713	0.000656376	1
2	1714	0.000656752	0
2	1741	0.000668	1
2	1745	0.000668376	0
2	1745	0.000668376	1
2	1746	0.000668752	0
2	1773	0.00068	1
2	1777	0.000680376	0
2	1777	0.000680376	1
2	1778	0.000680752	0
2	1805	0.000692	1
2	1809	0.000692376	0
2	1809	0.000692376	1
2	1810	0.000692752	0
2	1837	0.000704	1
2	1841	0.000704376	0
2	1841	0.000704376	1
2	1842	0.000704752	0
2	1869	0.000716	1
2	1873	0.000716376	0
2	1873	0.000716376	1
2	1874	0.000716752	0
2	1901	0.000728	1
2	1905	0.000728376	0
2	1905	0.000728376	1
2	1906	0.000728752	0
2	1933	0.00074	1
2	1937	0.000740376	0
2	1937	0.000740376	1
2	1938	0.000740752	0
2	1965	0.000752	1
2	1969	0.000752376	0
2	1969	0.000752376	1
2	1970	0.000752752	0
2	1997	0.000764	1
2	2001	0.000764376	0
2	2001	0.000764376	1
2	2002	0.000764752	0
2	2029	0.000776	1
2	2033	0.000776376	0
2	2033	0.000776376	1
2	2034	0.000776752	0
2	2061	0.000788	1
2	2065	0.000788376	0
2	2065	0.000788376	1
2	2066	0.000788752	0
2	2093	0.0008	1
2	2097	0.000800376	0
2	2097	0.000800376	1
2	2098	0.000800752	0
2	2125	0.000812	1
2	2129	0.000812376	0
2	2129	0.000812376	1
2	2130	0.000812752	0
2	2157	0.000824	1
2	2161	0.000824376	0
2	2161	0.000824376	1
2	2162	0.000824752	0
2	2189	0.000836	1
2	2193	0.000836376	0
2	2193	0.000836376	1
2	2194	0.000836752	0
2	2221	0.000848	1
2	2225	0.000848376	0
2	2225	0.000848376	1
2	2226	0.000848752	0
2	2253	0.00086	1
2	2257	0.000860376	0
2	2257	0.000860376	1
2	2258	0.000860752	0
2	2285	0.000872	1
2	2289	0.000872376	0
2	2289	0.000872376	1
2	2290	0.000872752	0
2	2317	0.000884	1
2	2321	0.000884376	0
2	2321	0.000884376	1
2	2322	0.000884752	0
2	2349	0.000896	1
2	2353	0.000896376	0
2	2353	0.000896376	1
2	2354	0.000896752	0
2	2381	0.000908	1
2	2385	0.000908376	0
2	2385	0.000908376	1
2	2386	0.000908752	0
2	2413	0.00092	1
2	2417	0.000920376	0
2	2417	0.000920376	1
2	2418	0.000920752	0
2	2445	0.000932	1
2	2449	0.000932376	0
2	2449	0.000932376	1
2	2450	0.000932752	0
2	2477	0.000944	1
2	2481	0.000944376	0
2	2481	0.000944376	1
2	2482	0.000944752	0
2	2509	0.000956	1
2	2513	0.000956376	0
2	2513	0.000956376	1
2	2514	0.000956752	0
2	2541	0.000968	1
2	2545	0.000968376	0
2	2545	0.000968376	1
2	2546	0.000968752	0
2	2573	0.00098	1
2	2577	0.000980376	0
2	2577	0.000980376	1
2	2578	0.000980752	0
2	2605	0.000992	1
2	2609	0.000992376	0
2	2609	0.000992376	1
2	2610	0.000992752	0
2	2637	0.001004	1
2	2641	0.001004376	0
2	2641	0.001004376	1
2	2642	0.001004752	0
2	2669	0.001016	1
2	2673	0.001016376	0
2	2673	0.001016376	1
2	2674	0.001016752	0
2	2701	0.001028	1
2	2705	0.001028376	0
2	2705	0.001028376	1
2	2706	0.001028752	0
2	2733	0.00104	1
2	2737	0.001040376	0
2	2737	0.001040376	1
2	2738	0.001040752	0
2	2765	0.001052	1
2	2769	0.001052376	0
2	2769	0.001052376	1
2	2770	0.001052752	0
2	2798	0.001064	1
2	2799	0.001064376	0
2	2822	0.001076	1
2	2823	0.001076376	0
2	2841	0.001088	1
2	2842	0.001088376	0
2	2859	0.0011	1
2	2860	0.001100376	0
2	2874	0.001112	1
2	2875	0.001112376	0
2	2889	0.001124	1
2	2890	0.001124376	0
2	2904	0.001136	1
2	2905	0.001136376	0
2	2919	0.001148	1
2	2920	0.001148376	0
2	2934	0.00116	1
2	2935	0.001160376	0
2	2949	0.001172	1
2	2950	0.001172376	0
2	2964	0.001184	1
2	2965	0.001184376	0
2	2979	0.001196	1
2	2980	0.001196376	0
2	2994	0.001208	1
2	2995	0.001208376	0
2	3010	0.00122	1
2	3011	0.001220376	0
2	3026	0.001232	1
2	3027	0.001232376	0
3	0	0	0
3	49	0.000022	1
3	55	0.000034	0
3	55	0.000034	1
3	71	0.000046	0
3	71	0.000046	1
3	95	0.000058	0
3	95	0.000058	1
3	126	0.00007	0
3	126	0.00007	1
3	162	0.000082	0
3	162	0.000082	1
3	198	0.000094	0
3	198	0.000094	1
3	234	0.000106	0
3	234	0.000106	1
3	270	0.000118	0
3	270	0.000118	1
3	305	0.00013	0
3	305	0.00013	1
3	339	0.000142	0
3	339	0.000142	1
3	371	0.000154	0
3	371	0.000154	1
3	403	0.000166	0
3	403	0.000166	1
3	435	0.000178	0
3	435	0.000178	1
3	467	0.00019	0
3	467	0.00019	1
3	499	0.000202	0
3	499	0.000202	1
3	531	0.000214	0
3	531	0.000214	1
3	563	0.000226	0
3	563	0.000226	1
3	595	0.000238	0
3	595	0.000238	1
3	627	0.00025	0
3	627	0.00025	1
3	659	0.000262	0
3	659	0.000262	1
3	691	0.000274	0
3	691	0.000274	1
3	723	0.000286	0
3	723	0.000286	1
3	755	0.000298	0
3	755	0.000298	1
3	787	0.00031	0
3	787	0.00031	1
3	819	0.000322	0
3	819	0.000322	1
3	851	0.000334	0
3	851	0.000334	1
3	883	0.000346	0
3	883	0.000346	1
3	915	0.000358	0
3	915	0.000358	1
3	947	0.00037	0
3	947	0.00037	1
3	979	0.000382	0
3	979	0.000382	1
3	1011	0.000394	0
3	1011	0.000394	1
3	1043	0.000406	0
3	1043	0.000406	1
3	1075	0.000418	0
3	1075	0.000418	1
3	1107	0.00043	0
3	1107	0.00043	1
3	1139	0.000442	0
3	1139	0.000442	1
3	1171	0.000454	0
3	1171	0.000454	1
3	1203	0.000466	0
3	1203	0.000466	1
3	1235	0.000478	0
3	1235	0.000478	1
3	1267	0.00049	0
3	1267	0.00049	1
3	1299	0.000502	0
3	1299	0.000502	1
3	1331	0.000514	0
3	1331	0.000514	1
3	1363	0.000526	0
3	1363	0.000526	1
3	1395	0.000538	0
3	1395	0.000538	1
3	1427	0.00055	0
3	1427	0.00055	1
3	1459	0.000562	0
3	1459	0.000562	1
3	1491	0.000574	0
3	1491	0.000574	1
3	1523	0.000586	0
3	1523	0.000586	1
3	1555	0.000598	0
3	1555	0.000598	1
3	1587	0.00061	0
3	1587	0.00061	1
3	1619	0.000622	0
3	1619	0.000622	1
3	1651	0.000634	0
3	1651	0.000634	1
3	1683	0.000646	0
3	1683	0.000646	1
3	1715	0.000658	0
3	1715	0.000658	1
3	1747	0.00067	0
3	1747	0.00067	1
3	1779	0.000682	0
3	1779	0.000682	1
3	1811	0.000694	0
3	1811	0.000694	1
3	1843	0.000706	0
3	1843	0.000706	1
3	1875	0.000718	0
3	1875	0.000718	1
3	1907	0.00073	0
3	1907	0.00073	1
3	1939	0.000742	0
3	1939	0.000742	1
3	1971	0.000754	0
3	1971	0.000754	1
3	2003	0.000766	0
3	2003	0.000766	1
3	2035	0.000778	0
3	2035	0.000778	1
3	2067	0.00079	0
3	2067	0.00079	1
3	2099	0.000802	0
3	2099	0.000802	1
3	2131	0.000814	0
3	2131	0.000814	1
3	2163	0.000826	0
3	2163	0.000826	1
3	2195	0.000838	0
3	2195	0.000838	1
3	2227	0.00085	0
3	2227	0.00085	1
3	2259	0.000862	0
3	2259	0.000862	1
3	2291	0.000874	0
3	2291	0.000874	1
3	2323	0.000886	0
3	2323	0.000886	1
3	2355	0.000898	0
3	2355	0.000898	1
3	2387	0.00091	0
3	2387	0.00091	1
3	2419	0.000922	0
3	2419	0.000922	1
3	2451	0.000934	0
3	2451	0.000934	1
3	2483	0.000946	0
3	2483	0.000946	1
3	2515	0.000958	0
3	2515	0.000958	1
3	2547	0.00097	0
3	2547	0.00097	1
3	2579	0.000982	0
3	2579	0.000982	1
3	2611	0.000994	0
3	2611	0.000994	1
3	2643	0.001006	0
3	2643	0.001006	1
3	2675	0.001018	0
3	2675	0.001018	1
3	2707	0.00103	0
3	2707	0.00103	1
3	2739	0.001042	0
3	2739	0.001042	1
3	2771	0.001054	0
3	2771	0.001054	1
3	2800	0.001066	0
3	2800	0.001066	1
3	2824	0.001078	0
3	2824	0.001078	1
3	2843	0.00109	0
3	2843	0.00109	1
3	2861	0.001102	0
3	2861	0.001102	1
3	2876	0.001114	0
3	2876	0.001114	1
3	2891	0.001126	0
3	2891	0.001126	1
3	2906	0.001138	0
3	2906	0.001138	1
3	2921	0.00115	0
3	2921	0.00115	1
3	2936	0.001162	0
3	2936	0.001162	1
3	2951	0.001174	0
3	2951	0.001174	1
3	2966	0.001186	0
3	2966	0.001186	1
3	2981	0.001198	0
3	2981	0.001198	1
3	2996	0.00121	0
3	2996	0.00121	1
3	3012	0.001222	0
4	0	0	0
4	80	0.000054376	1
4	81	0.000054752	0
4	107	0.000066376	1
4	109	0.000066752	0
4	147	0.000078752	1
4	148	0.000079128	0
4	179	0.000090376	1
4	181	0.000090752	0
4	219	0.000102752	1
4	220	0.000103128	0
4	251	0.000114376	1
4	253	0.000114752	0
4	291	0.000126752	1
4	292	0.000127128	0
4	322	0.000138376	1
4	324	0.000138752	0
4	358	0.000150752	1
4	359	0.000151128	0
4	386	0.000162376	1
4	388	0.000162752	0
4	422	0.000174752	1
4	423	0.000175128	0
4	450	0.000186376	1
4	452	0.000186752	0
4	486	0.000198752	1
4	487	0.000199128	0
4	514	0.000210376	1
4	516	0.000210752	0
4	550	0.000222752	1
4	551	0.000223128	0
4	578	0.000234376	1
4	580	0.000234752	0
4	614	0.000246752	1
4	615	0.000247128	0
4	642	0.000258376	1
4	644	0.000258752	0
4	678	0.000270752	1
4	679	0.000271128	0
4	706	0.000282376	1
4	708	0.000282752	0
4	742	0.000294752	1
4	743	0.000295128	0
4	770	0.000306376	1
4	772	0.000306752	0
4	806	0.000318752	1
4	807	0.000319128	0
4	834	0.000330376	1
4	836	0.000330752	0
4	870	0.000342752	1
4	871	0.000343128	0
4	898	0.000354376	1
4	900	0.000354752	0
4	934	0.000366752	1
4	935	0.000367128	0
4	962	0.000378376	1
4	964	0.000378752	0
4	998	0.000390752	1
4	999	0.000391128	0
4	1026	0.000402376	1
4	1028	0.000402752	0
4	1062	0.000414752	1
4	1063	0.000415128	0
4	1090	0.000426376	1
4	1092	0.000426752	0
4	1126	0.000438752	1
4	1127	0.000439128	0
4	1154	0.000450376	1
4	1156	0.000450752	0
4	1190	0.000462752	1
4	1191	0.000463128	0
4	1218	0.000474376	1
4	1220	0.000474752	0
4	1254	0.000486752	1
4	1255	0.000487128	0
4	1282	0.000498376	1
4	1284	0.000498752	0
4	1318	0.000510752	1
4	1319	0.000511128	0
4	1346	0.000522376	1
4	1348	0.000522752	0
4	1382	0.000534752	1
4	1383	0.000535128	0
4	1410	0.000546376	1
4	1412	0.000546752	0
4	1446	0.000558752	1
4	1447	0.000559128	0
4	1474	0.000570376	1
4	1476	0.000570752	0
4	1510	0.000582752	1
4	1511	0.000583128	0
4	1538	0.000594376	1
4	1540	0.000594752	0
4	1574	0.000606752	1
4	1575	0.000607128	0
4	1602	0.000618376	1
4	1604	0.000618752	0
4	1638	0.000630752	1
4	1639	0.000631128	0
4	1666	0.000642376	1
4	1668	0.000642752	0
4	1702	0.000654752	1
4	1703	0.000655128	0
4	1730	0.000666376	1
4	1732	0.000666752	0
4	1766	0.000678752	1
4	1767	0.000679128	0
4	1794	0.000690376	1
4	1796	0.000690752	0
4	1830	0.000702752	1
4	1831	0.000703128	0
4	1858	0.000714376	1
4	1860	0.000714752	0
4	1894	0.000726752	1
4	1895	0.000727128	0
4	1922	0.000738376	1
4	1924	0.000738752	0
4	1958	0.000750752	1
4	1959	0.000751128	0
4	1986	0.000762376	1
4	1988	0.000762752	0
4	2022	0.000774752	1
4	2023	0.000775128	0
4	2050	0.000786376	1
4	2052	0.000786752	0
4	2086	0.000798752	1
4	2087	0.000799128	0
4	2114	0.000810376	1
4	2116	0.000810752	0
4	2150	0.000822752	1
4	2151	0.000823128	0
4	2178	0.000834376	1
4	2180	0.000834752	0
4	2214	0.000846752	1
4	2215	0.000847128	0
4	2242	0.000858376	1
4	2244	0.000858752	0
4	2278	0.000870752	1
4	2279	0.000871128	0
4	2306	0.000882376	1
4	2308	0.000882752	0
4	2342	0.000894752	1
4	2343	0.000895128	0
4	2370	0.000906376	1
4	2372	0.000906752	0
4	2406	0.000918752	1
4	2407	0.000919128	0
4	2434	0.000930376	1
4	2436	0.000930752	0
4	2470	0.000942752	1
4	2471	0.000943128	0
4	2498	0.000954376	1
4	2500	0.000954752	0
4	2534	0.000966752	1
4	2535	0.000967128	0
4	2562	0.000978376	1
4	2564	0.000978752	0
4	2598	0.000990752	1
4	2599	0.000991128	0
4	2626	0.001002376	1
4	2628	0.001002752	0
4	2662	0.001014752	1
4	2663	0.001015128	0
4	2690	0.001026376	1
4	2692	0.001026752	0
4	2726	0.001038752	1
4	2727	0.001039128	0
4	2754	0.001050376	1
4	2756	0.001050752	0
4	2790	0.001062752	1
4	2791	0.001063128	0
4	2834	0.001086376	1
4	2835	0.001086752	0
4	2867	0.001110376	1
4	2868	0.001110752	0
4	2897	0.001134376	1
4	2898	0.001134752	0
4	2927	0.001158376	1
4	2928	0.001158752	0
4	2957	0.001182376	1
4	2958	0.001182752	0
4	2987	0.001206376	1
4	2988	0.001206752	0
4	3018	0.001230376	1
4	3019	0.001230752	0
5	0	0	0
5	111	0.000066752	1
5	112	0.000067128	0
5	143	0.000078376	1
5	145	0.000078752	0
5	183	0.000090752	1
5	184	0.000091128	0
5	215	0.000102376	1
5	217	0.000102752	0
5	255	0.000114752	1
5	256	0.000115128	0
5	287	0.000126376	1
5	289	0.000126752	0
5	326	0.000138752	1
5	327	0.000139128	0
5	354	0.000150376	1
5	356	0.000150752	0
5	390	0.000162752	1
5	391	0.000163128	0
5	418	0.000174376	1
5	420	0.000174752	0
5	454	0.000186752	1
5	455	0.000187128	0
5	482	0.000198376	1
5	484	0.000198752	0
5	518	0.000210752	1
5	519	0.000211128	0
5	546	0.000222376	1
5	548	0.000222752	0
5	582	0.000234752	1
5	583	0.000235128	0
5	610	0.000246376	1
5	612	0.000246752	0
5	646	0.000258752	1
5	647	0.000259128	0
5	674	0.000270376	1
5	676	0.000270752	0
5	710	0.000282752	1
5	711	0.000283128	0
5	738	0.000294376	1
5	740	0.000294752	0
5	774	0.000306752	1
5	775	0.000307128	0
5	802	0.000318376	1
5	804	0.000318752	0
5	838	0.000330752	1
5	839	0.000331128	0
5	866	0.000342376	1
5	868	0.000342752	0
5	902	0.000354752	1
5	903	0.000355128	0
5	930	0.000366376	1
5	932	0.000366752	0
5	966	0.000378752	1
5	967	0.000379128	0
5	994	0.000390376	1
5	996	0.000390752	0
5	1030	0.000402752	1
5	1031	0.000403128	0
5	1058	0.000414376	1
5	1060	0.000414752	0
5	1094	0.000426752	1
5	1095	0.000427128	0
5	1122	0.000438376	1
5	1124	0.000438752	0
5	1158	0.000450752	1
5	1159	0.000451128	0
5	1186	0.000462376	1
5	1188	0.000462752	0
5	1222	0.000474752	1
5	1223	0.000475128	0
5	1250	0.000486376	1
5	1252	0.000486752	0
5	1286	0.000498752	1
5	1287	0.000499128	0
5	1314	0.000510376	1
5	1316	0.000510752	0
5	1350	0.000522752	1
5	1351	0.000523128	0
5	1378	0.000534376	1
5	1380	0.000534752	0
5	1414	0.000546752	1
5	1415	0.000547128	0
5	1442	0.000558376	1
5	1444	0.000558752	0
5	1478	0.000570752	1
5	1479	0.000571128	0
5	1506	0.000582376	1
5	1508	0.000582752	0
5	1542	0.000594752	1
5	1543	0.000595128	0
5	1570	0.000606376	1
5	1572	0.000606752	0
5	1606	0.000618752	1
5	1607	0.000619128	0
5	1634	0.000630376	1
5	1636	0.000630752	0
5	1670	0.000642752	1
5	1671	0.000643128	0
5	1698	0.000654376	1
5	1700	0.000654752	0
5	1734	0.000666752	1
5	1735	0.000667128	0
5	1762	0.000678376	1
5	1764	0.000678752	0
5	1798	0.000690752	1
5	1799	0.000691128	0
5	1826	0.000702376	1
5	1828	0.000702752	0
5	1862	0.000714752	1
5	1863	0.000715128	0
5	1890	0.000726376	1
5	1892	0.000726752	0
5	1926	0.000738752	1
5	1927	0.000739128	0
5	1954	0.000750376	1
5	1956	0.000750752	0
5	1990	0.000762752	1
5	1991	0.000763128	0
5	2018	0.000774376	1
5	2020	0.000774752	0
5	2054	0.000786752	1
5	2055	0.000787128	0
5	2082	0.000798376	1
5	2084	0.000798752	0
5	2118	0.000810752	1
5	2119	0.000811128	0
5	2146	0.000822376	1
5	2148	0.000822752	0
5	2182	0.000834752	1
5	2183	0.000835128	0
5	2210	0.000846376	1
5	2212	0.000846752	0
5	2246	0.000858752	1
5	2247	0.000859128	0
5	2274	0.000870376	1
5	2276	0.000870752	0
5	2310	0.000882752	1
5	2311	0.000883128	0
5	2338	0.000894376	1
5	2340	0.000894752	0
5	2374	0.000906752	1
5	2375	0.000907128	0
5	2402	0.000918376	1
5	2404	0.000918752	0
5	2438	0.000930752	1
5	2439	0.000931128	0
5	2466	0.000942376	1
5	2468	0.000942752	0
5	2502	0.000954752	1
5	2503	0.000955128	0
5	2530	0.000966376	1
5	2532	0.000966752	0
5	2566	0.000978752	1
5	2567	0.000979128	0
5	2594	0.000990376	1
5	2596	0.000990752	0
5	2630	0.001002752	1
5	2631	0.001003128	0
5	2658	0.001014376	1
5	2660	0.001014752	0
5	2694	0.001026752	1
5	2695	0.001027128	0
5	2722	0.001038376	1
5	2724	0.001038752	0
5	2758	0.001050752	1
5	2759	0.001051128	0
5	2786	0.001062376	1
5	2788	0.001062752	0
5	2815	0.001074376	1
5	2816	0.001074752	0
5	2852	0.001098376	1
5	2853	0.001098752	0
5	2882	0.001122376	1
5	2883	0.001122752	0
5	2912	0.001146376	1
5	2913	0.001146752	0
5	2942	0.001170376	1
5	2943	0.001170752	0
5	2972	0.001194376	1
5	2973	0.001194752	0
5	3002	0.001218376	1
5	3003	0.001218752	0
5	3033	0.001242376	1
5	3034	0.001242752	0
6	27	0	1493
6	28	0	1493
6	29	0	1493
6	30	0	1493
6	31	0	1493
6	32	0	1493
6	33	0	1493
6	34	0	1493
6	137	0.000076752	1493
6	209	0.000100752	1493
6	281	0.000124752	1493
6	348	0.000148752	1493
6	412	0.000172752	1493
6	476	0.000196752	1493
6	540	0.000220752	1493
6	604	0.000244752	1493
6	668	0.000268752	1493
6	732	0.000292752	1493
6	796	0.000316752	1493
6	860	0.000340752	1493
6	924	0.000364752	1493
6	988	0.000388752	1493
6	1052	0.000412752	1493
6	1116	0.000436752	1493
6	1180	0.000460752	1493
6	1244	0.000484752	1493
6	1308	0.000508752	1493
6	1372	0.000532752	1493
6	1436	0.000556752	1493
6	1500	0.000580752	1493
6	1564	0.000604752	1493
6	1628	0.000628752	1493
6	1692	0.000652752	1493
6	1756	0.000676752	1493
6	1820	0.000700752	1493
6	1884	0.000724752	1493
6	1948	0.000748752	1493
6	2012	0.000772752	1493
6	2076	0.000796752	1493
6	2140	0.000820752	1493
6	2204	0.000844752	1493
6	2268	0.000868752	1493
6	2332	0.000892752	1493
6	2396	0.000916752	1493
6	2460	0.000940752	1493
6	2524	0.000964752	1493
6	2588	0.000988752	1493
6	2652	0.001012752	1493
6	2716	0.001036752	1493
6	2780	0.001060752	1493
7	27	0	1493
7	28	0	1493
7	29	0	1493
7	30	0	1493
7	31	0	1493
7	32	0	1493
7	33	0	1493
7	34	0	1493
7	137	0.000076752	1493
7	209	0.000100752	1493
7	281	0.000124752	1493
7	348	0.000148752	1493
7	412	0.000172752	1493
7	476	0.000196752	1493
7	540	0.000220752	1493
7	604	0.000244752	1493
7	668	0.000268752	1493
7	732	0.000292752	1493
7	796	0.000316752	1493
7	860	0.000340752	1493
7	924	0.000364752	1493
7	988	0.000388752	1493
7	1052	0.000412752	1493
7	1116	0.000436752	1493
7	1180	0.000460752	1493
7	1244	0.000484752	1493
7	1308	0.000508752	1493
7	1372	0.000532752	1493
7	1436	0.000556752	1493
7	1500	0.000580752	1493
7	1564	0.000604752	1493
7	1628	0.000628752	1493
7	1692	0.000652752	1493
7	1756	0.000676752	1493
7	1820	0.000700752	1493
7	1884	0.000724752	1493
7	1948	0.000748752	1493
7	2012	0.000772752	1493
7	2076	0.000796752	1493
7	2140	0.000820752	1493
7	2204	0.000844752	1493
7	2268	0.000868752	1493
7	2332	0.000892752	1493
7	2396	0.000916752	1493
7	2460	0.000940752	1493
7	2524	0.000964752	1493
7	2588	0.000988752	1493
7	2652	0.001012752	1493
7	2716	0.001036752	1493
7	2780	0.001060752	1493
8	27	0	1
8	27	0	0
8	28	0	1
8	29	0	2
8	30	0	3
8	31	0	4
8	32	0	5
8	33	0	6
8	34	0	7
8	43	0.000012	6
8	51	0.000024	5
8	60	0.000036	4
8	76	0.000048	3
8	100	0.00006	2
8	131	0.000072	1
8	137	0.000076752	2
8	167	0.000084	1
8	203	0.000096	0
8	209	0.000100752	1
8	239	0.000108	0
8	281	0.000124752	1
8	281	0.000124752	0
8	348	0.000148752	1
8	348	0.000148752	0
8	412	0.000172752	1
8	412	0.000172752	0
8	476	0.000196752	1
8	476	0.000196752	0
8	540	0.000220752	1
8	540	0.000220752	0
8	604	0.000244752	1
8	604	0.000244752	0
8	668	0.000268752	1
8	668	0.000268752	0
8	732	0.000292752	1
8	732	0.000292752	0
8	796	0.000316752	1
8	796	0.000316752	0
8	860	0.000340752	1
8	860	0.000340752	0
8	924	0.000364752	1
8	924	0.000364752	0
8	988	0.000388752	1
8	988	0.000388752	0
8	1052	0.000412752	1
8	1052	0.000412752	0
8	1116	0.000436752	1
8	1116	0.000436752	0
8	1180	0.000460752	1
8	1180	0.000460752	0
8	1244	0.000484752	1
8	1244	0.000484752	0
8	1308	0.000508752	1
8	1308	0.000508752	0
8	1372	0.000532752	1
8	1372	0.000532752	0
8	1436	0.000556752	1
8	1436	0.000556752	0
8	1500	0.000580752	1
8	1500	0.000580752	0
8	1564	0.000604752	1
8	1564	0.000604752	0
8	1628	0.000628752	1
8	1628	0.000628752	0
8	1692	0.000652752	1
8	1692	0.000652752	0
8	1756	0.000676752	1
8	1756	0.000676752	0
8	1820	0.000700752	1
8	1820	0.000700752	0
8	1884	0.000724752	1
8	1884	0.000724752	0
8	1948	0.000748752	1
8	1948	0.000748752	0
8	2012	0.000772752	1
8	2012	0.000772752	0
8	2076	0.000796752	1
8	2076	0.000796752	0
8	2140	0.000820752	1
8	2140	0.000820752	0
8	2204	0.000844752	1
8	2204	0.000844752	0
8	2268	0.000868752	1
8	2268	0.000868752	0
8	2332	0.000892752	1
8	2332	0.000892752	0
8	2396	0.000916752	1
8	2396	0.000916752	0
8	2460	0.000940752	1
8	2460	0.000940752	0
8	2524	0.000964752	1
8	2524	0.000964752	0
8	2588	0.000988752	1
8	2588	0.000988752	0
8	2652	0.001012752	1
8	2652	0.001012752	0
8	2716	0.001036752	1
8	2716	0.001036752	0
8	2780	0.001060752	1
8	2780	0.001060752	0
9	27	0	1493
9	43	0.000012	1493
9	51	0.000024	1493
9	60	0.000036	1493
9	76	0.000048	1493
9	100	0.00006	1493
9	131	0.000072	1493
9	167	0.000084	1493
9	203	0.000096	1493
9	239	0.000108	1493
9	281	0.000124752	1493
9	348	0.000148752	1493
9	412	0.000172752	1493
9	476	0.000196752	1493
9	540	0.000220752	1493
9	604	0.000244752	1493
9	668	0.000268752	1493
9	732	0.000292752	1493
9	796	0.000316752	1493
9	860	0.000340752	1493
9	924	0.000364752	1493
9	988	0.000388752	1493
9	1052	0.000412752	1493
9	1116	0.000436752	1493
9	1180	0.000460752	1493
9	1244	0.000484752	1493
9	1308	0.000508752	1493
9	1372	0.000532752	1493
9	1436	0.000556752	1493
9	1500	0.000580752	1493
9	1564	0.000604752	1493
9	1628	0.000628752	1493
9	1692	0.000652752	1493
9	1756	0.000676752	1493
9	1820	0.000700752	1493
9	1884	0.000724752	1493
9	1948	0.000748752	1493
9	2012	0.000772752	1493
9	2076	0.000796752	1493
9	2140	0.000820752	1493
9	2204	0.000844752	1493
9	2268	0.000868752	1493
9	2332	0.000892752	1493
9	2396	0.000916752	1493
9	2460	0.000940752	1493
9	2524	0.000964752	1493
9	2588	0.000988752	1493
9	2652	0.001012752	1493
9	2716	0.001036752	1493
9	2780	0.001060752	1493
10	27	0	0
10	43	0.000012	1.2e-05
10	51	0.000024	2.4e-05
10	60	0.000036	3.6e-05
10	76	0.000048	4.8e-05
10	100	0.00006	6e-05
10	131	0.000072	7.2e-05
10	167	0.000084	8.4e-05
10	203	0.000096	1.9248e-05
10	239	0.000108	7.248e-06
10	281	0.000124752	0
10	348	0.000148752	0
10	412	0.000172752	0
10	476	0.000196752	0
10	540	0.000220752	0
10	604	0.000244752	0
10	668	0.000268752	0
10	732	0.000292752	0
10	796	0.000316752	0
10	860	0.000340752	0
10	924	0.000364752	0
10	988	0.000388752	0
10	1052	0.000412752	0
10	1116	0.000436752	0
10	1180	0.000460752	0
10	1244	0.000484752	0
10	1308	0.000508752	0
10	1372	0.000532752	0
10	1436	0.000556752	0
10	1500	0.000580752	0
10	1564	0.000604752	0
10	1628	0.000628752	0
10	1692	0.000652752	0
10	1756	0.000676752	0
10	1820	0.000700752	0
10	1884	0.000724752	0
10	1948	0.000748752	0
10	2012	0.000772752	0
10	2076	0.000796752	0
10	2140	0.000820752	0
10	2204	0.000844752	0
10	2268	0.000868752	0
10	2332	0.000892752	0
10	2396	0.000916752	0
10	2460	0.000940752	0
10	2524	0.000964752	0
10	2588	0.000988752	0
10	2652	0.001012752	0
10	2716	0.001036752	0
10	2780	0.001060752	0
11	27	0	1500
11	43	0.000012	1500
11	51	0.000024	1500
11	60	0.000036	1500
11	76	0.000048	1500
11	100	0.00006	1500
11	131	0.000072	1500
11	167	0.000084	1500
11	203	0.000096	1500
11	239	0.000108	1500
11	281	0.000124752	1500
11	348	0.000148752	1500
11	412	0.000172752	1500
11	476	0.000196752	1500
11	540	0.000220752	1500
11	604	0.000244752	1500
11	668	0.000268752	1500
11	732	0.000292752	1500
11	796	0.000316752	1500
11	860	0.000340752	1500
11	924	0.000364752	1500
11	988	0.000388752	1500
11	1052	0.000412752	1500
11	1116	0.000436752	1500
11	1180	0.000460752	1500
11	1244	0.000484752	1500
11	1308	0.000508752	1500
11	1372	0.000532752	1500
11	1436	0.000556752	1500
11	1500	0.000580752	1500
11	1564	0.000604752	1500
11	1628	0.000628752	1500
11	1692	0.000652752	1500
11	1756	0.000676752	1500
11	1820	0.000700752	1500
11	1884	0.000724752	1500
11	1948	0.000748752	1500
11	2012	0.000772752	1500
11	2076	0.000796752	1500
11	2140	0.000820752	1500
11	2204	0.000844752	1500
11	2268	0.000868752	1500
11	2332	0.000892752	1500
11	2396	0.000916752	1500
11	2460	0.000940752	1500
11	2524	0.000964752	1500
11	2588	0.000988752	1500
11	2652	0.001012752	1500
11	2716	0.001036752	1500
11	2780	0.001060752	1500
12	35	0	1493
12	36	0	1493
12	37	0	1493
12	38	0	1493
12	39	0	1493
12	40	0	1493
12	41	0	1493
12	42	0	1493
12	173	0.000088752	1493
12	245	0.000112752	1493
12	316	0.000136752	1493
12	380	0.000160752	1493
12	444	0.000184752	1493
12	508	0.000208752	1493
12	572	0.000232752	1493
12	636	0.000256752	1493
12	700	0.000280752	1493
12	764	0.000304752	1493
12	828	0.000328752	1493
12	892	0.000352752	1493
12	956	0.000376752	1493
12	1020	0.000400752	1493
12	1084	0.000424752	1493
12	1148	0.000448752	1493
12	1212	0.000472752	1493
12	1276	0.000496752	1493
12	1340	0.000520752	1493
12	1404	0.000544752	1493
12	1468	0.000568752	1493
12	1532	0.000592752	1493
12	1596	0.000616752	1493
12	1660	0.000640752	1493
12	1724	0.000664752	1493
12	1788	0.000688752	1493
12	1852	0.000712752	1493
12	1916	0.000736752	1493
12	1980	0.000760752	1493
12	2044	0.000784752	1493
12	2108	0.000808752	1493
12	2172	0.000832752	1493
12	2236	0.000856752	1493
12	2300	0.000880752	1493
12	2364	0.000904752	1493
12	2428	0.000928752	1493
12	2492	0.000952752	1493
12	2556	0.000976752	1493
12	2620	0.001000752	1493
12	2684	0.001024752	1493
12	2748	0.001048752	1493
12	2809	0.001072752	1493
13	35	0	1493
13	36	0	1493
13	37	0	1493
13	38	0	1493
13	39	0	1493
13	40	0	1493
13	41	0	1493
13	42	0	1493
13	173	0.000088752	1493
13	245	0.000112752	1493
13	316	0.000136752	1493
13	380	0.000160752	1493
13	444	0.000184752	1493
13	508	0.000208752	1493
13	572	0.000232752	1493
13	636	0.000256752	1493
13	700	0.000280752	1493
13	764	0.000304752	1493
13	828	0.000328752	1493
13	892	0.000352752	1493
13	956	0.000376752	1493
13	1020	0.000400752	1493
13	1084	0.000424752	1493
13	1148	0.000448752	1493
13	1212	0.000472752	1493
13	1276	0.000496752	1493
13	1340	0.000520752	1493
13	1404	0.000544752	1493
13	1468	0.000568752	1493
13	1532	0.000592752	1493
13	1596	0.000616752	1493
13	1660	0.000640752	1493
13	1724	0.000664752	1493
13	1788	0.000688752	1493
13	1852	0.000712752	1493
13	1916	0.000736752	1493
13	1980	0.000760752	1493
13	2044	0.000784752	1493
13	2108	0.000808752	1493
13	2172	0.000832752	1493
13	2236	0.000856752	1493
13	2300	0.000880752	1493
13	2364	0.000904752	1493
13	2428	0.000928752	1493
13	2492	0.000952752	1493
13	2556	0.000976752	1493
13	2620	0.001000752	1493
13	2684	0.001024752	1493
13	2748	0.001048752	1493
13	2809	0.001072752	1493
14	35	0	1
14	35	0	0
14	36	0	1
14	37	0	2
14	38	0	3
14	39	0	4
14	40	0	5
14	41	0	6
14	42	0	7
14	44	0.000012	6
14	52	0.000024	5
14	61	0.000036	4
14	77	0.000048	3
14	101	0.00006	2
14	132	0.000072	1
14	168	0.000084	0
14	173	0.000088752	1
14	204	0.000096	0
14	245	0.000112752	1
14	245	0.000112752	0
14	316	0.000136752	1
14	316	0.000136752	0
14	380	0.000160752	1
14	380	0.000160752	0
14	444	0.000184752	1
14	444	0.000184752	0
14	508	0.000208752	1
14	508	0.000208752	0
14	572	0.000232752	1
14	572	0.000232752	0
14	636	0.000256752	1
14	636	0.000256752	0
14	700	0.000280752	1
14	700	0.000280752	0
14	764	0.000304752	1
14	764	0.000304752	0
14	828	0.000328752	1
14	828	0.000328752	0
14	892	0.000352752	1
14	892	0.000352752	0
14	956	0.000376752	1
14	956	0.000376752	0
14	1020	0.000400752	1
14	1020	0.000400752	0
14	1084	0.000424752	1
14	1084	0.000424752	0
14	1148	0.000448752	1
14	1148	0.000448752	0
14	1212	0.000472752	1
14	1212	0.000472752	0
14	1276	0.000496752	1
14	1276	0.000496752	0
14	1340	0.000520752	1
14	1340	0.000520752	0
14	1404	0.000544752	1
14	1404	0.000544752	0
14	1468	0.000568752	1
14	1468	0.000568752	0
14	1532	0.000592752	1
14	1532	0.000592752	0
14	1596	0.000616752	1
14	1596	0.000616752	0
14	1660	0.000640752	1
14	1660	0.000640752	0
14	1724	0.000664752	1
14	1724	0.000664752	0
14	1788	0.000688752	1
14	1788	0.000688752	0
14	1852	0.000712752	1
14	1852	0.000712752	0
14	1916	0.000736752	1
14	1916	0.000736752	0
14	1980	0.000760752	1
14	1980	0.000760752	0
14	2044	0.000784752	1
14	2044	0.000784752	0
14	2108	0.000808752	1
14	2108	0.000808752	0
14	2172	0.000832752	1
14	2172	0.000832752	0
14	2236	0.000856752	1
14	2236	0.000856752	0
14	2300	0.000880752	1
14	2300	0.000880752	0
14	2364	0.000904752	1
14	2364	0.000904752	0
14	2428	0.000928752	1
14	2428	0.000928752	0
14	2492	0.000952752	1
14	2492	0.000952752	0
14	2556	0.000976752	1
14	2556	0.000976752	0
14	2620	0.001000752	1
14	2620	0.001000752	0
14	2684	0.001024752	1
14	2684	0.001024752	0
14	2748	0.001048752	1
14	2748	0.001048752	0
14	2809	0.001072752	1
14	2809	0.001072752	0
15	35	0	1493
15	44	0.000012	1493
15	52	0.000024	1493
15	61	0.000036	1493
15	77	0.000048	1493
15	101	0.00006	1493
15	132	0.000072	1493
15	168	0.000084	1493
15	204	0.000096	1493
15	245	0.000112752	1493
15	316	0.000136752	1493
15	380	0.000160752	1493
15	444	0.000184752	1493
15	508	0.000208752	1493
15	572	0.000232752	1493
15	636	0.000256752	1493
15	700	0.000280752	1493
15	764	0.000304752	1493
15	828	0.000328752	1493
15	892	0.000352752	1493
15	956	0.000376752	1493
15	1020	0.000400752	1493
15	1084	0.000424752	1493
15	1148	0.000448752	1493
15	1212	0.000472752	1493
15	1276	0.000496752	1493
15	1340	0.000520752	1493
15	1404	0.000544752	1493
15	1468	0.000568752	1493
15	1532	0.000592752	1493
15	1596	0.000616752	1493
15	1660	0.000640752	1493
15	1724	0.000664752	1493
15	1788	0.000688752	1493
15	1852	0.000712752	1493
15	1916	0.000736752	1493
15	1980	0.000760752	1493
15	2044	0.000784752	1493
15	2108	0.000808752	1493
15	2172	0.000832752	1493
15	2236	0.000856752	1493
15	2300	0.000880752	1493
15	2364	0.000904752	1493
15	2428	0.000928752	1493
15	2492	0.000952752	1493
15	2556	0.000976752	1493
15	2620	0.001000752	1493
15	2684	0.001024752	1493
15	2748	0.001048752	1493
15	2809	0.001072752	1493
16	35	0	0
16	44	0.000012	1.2e-05
16	52	0.000024	2.4e-05
16	61	0.000036	3.6e-05
16	77	0.000048	4.8e-05
16	101	0.00006	6e-05
16	132	0.000072	7.2e-05
16	168	0.000084	8.4e-05
16	204	0.000096	7.248e-06
16	245	0.000112752	0
16	316	0.000136752	0
16	380	0.000160752	0
16	444	0.000184752	0
16	508	0.000208752	0
16	572	0.000232752	0
16	636	0.000256752	0
16	700	0.000280752	0
16	764	0.000304752	0
16	828	0.000328752	0
16	892	0.000352752	0
16	956	0.000376752	0
16	1020	0.000400752	0
16	1084	0.000424752	0
16	1148	0.000448752	0
16	1212	0.000472752	0
16	1276	0.000496752	0
16	1340	0.000520752	0
16	1404	0.000544752	0
16	1468	0.000568752	0
16	1532	0.000592752	0
16	1596	0.000616752	0
16	1660	0.000640752	0
16	1724	0.000664752	0
16	1788	0.000688752	0
16	1852	0.000712752	0
16	1916	0.000736752	0
16	1980	0.000760752	0
16	2044	0.000784752	0
16	2108	0.000808752	0
16	2172	0.000832752	0
16	2236	0.000856752	0
16	2300	0.000880752	0
16	2364	0.000904752	0
16	2428	0.000928752	0
16	2492	0.000952752	0
16	2556	0.000976752	0
16	2620	0.001000752	0
16	2684	0.001024752	0
16	2748	0.001048752	0
16	2809	0.001072752	0
17	35	0	1500
17	44	0.000012	1500
17	52	0.000024	1500
17	61	0.000036	1500
17	77	0.000048	1500
17	101	0.00006	1500
17	132	0.000072	1500
17	168	0.000084	1500
17	204	0.000096	1500
17	245	0.000112752	1500
17	316	0.000136752	1500
17	380	0.000160752	1500
17	444	0.000184752	1500
17	508	0.000208752	1500
17	572	0.000232752	1500
17	636	0.000256752	1500
17	700	0.000280752	1500
17	764	0.000304752	1500
17	828	0.000328752	1500
17	892	0.000352752	1500
17	956	0.000376752	1500
17	1020	0.000400752	1500
17	1084	0.000424752	1500
17	1148	0.000448752	1500
17	1212	0.000472752	1500
17	1276	0.000496752	1500
17	1340	0.000520752	1500
17	1404	0.000544752	1500
17	1468	0.000568752	1500
17	1532	0.000592752	1500
17	1596	0.000616752	1500
17	1660	0.000640752	1500
17	1724	0.000664752	1500
17	1788	0.000688752	1500
17	1852	0.000712752	1500
17	1916	0.000736752	1500
17	1980	0.000760752	1500
17	2044	0.000784752	1500
17	2108	0.000808752	1500
17	2172	0.000832752	1500
17	2236	0.000856752	1500
17	2300	0.000880752	1500
17	2364	0.000904752	1500
17	2428	0.000928752	1500
17	2492	0.000952752	1500
17	2556	0.000976752	1500
17	2620	0.001000752	1500
17	2684	0.001024752	1500
17	2748	0.001048752	1500
17	2809	0.001072752	1500
18	45	0.000022	1500
18	53	0.000034	1500
18	69	0.000046	1500
18	93	0.000058	1500
18	124	0.00007	1500
18	160	0.000082	1500
18	196	0.000094	1500
18	232	0.000106	1500
18	268	0.000118	1500
18	304	0.00013	1500
18	340	0.000146752	1500
18	404	0.000170752	1500
18	468	0.000194752	1500
18	532	0.000218752	1500
18	596	0.000242752	1500
18	660	0.000266752	1500
18	724	0.000290752	1500
18	788	0.000314752	1500
18	852	0.000338752	1500
18	916	0.000362752	1500
18	980	0.000386752	1500
18	1044	0.000410752	1500
18	1108	0.000434752	1500
18	1172	0.000458752	1500
18	1236	0.000482752	1500
18	1300	0.000506752	1500
18	1364	0.000530752	1500
18	1428	0.000554752	1500
18	1492	0.000578752	1500
18	1556	0.000602752	1500
18	1620	0.000626752	1500
18	1684	0.000650752	1500
18	1748	0.000674752	1500
18	1812	0.000698752	1500
18	1876	0.000722752	1500
18	1940	0.000746752	1500
18	2004	0.000770752	1500
18	2068	0.000794752	1500
18	2132	0.000818752	1500
18	2196	0.000842752	1500
18	2260	0.000866752	1500
18	2324	0.000890752	1500
18	2388	0.000914752	1500
18	2452	0.000938752	1500
18	2516	0.000962752	1500
18	2580	0.000986752	1500
18	2644	0.001010752	1500
18	2708	0.001034752	1500
18	2772	0.001058752	1500
18	2825	0.001082752	1500
19	45	0.000022	1493
19	53	0.000034	1493
19	69	0.000046	1493
19	93	0.000058	1493
19	124	0.00007	1493
19	160	0.000082	1493
19	196	0.000094	1493
19	232	0.000106	1493
19	268	0.000118	1493
19	304	0.00013	1493
19	340	0.000146752	1493
19	404	0.000170752	1493
19	468	0.000194752	1493
19	532	0.000218752	1493
19	596	0.000242752	1493
19	660	0.000266752	1493
19	724	0.000290752	1493
19	788	0.000314752	1493
19	852	0.000338752	1493
19	916	0.000362752	1493
19	980	0.000386752	1493
19	1044	0.000410752	1493
19	1108	0.000434752	1493
19	1172	0.000458752	1493
19	1236	0.000482752	1493
19	1300	0.000506752	1493
19	1364	0.000530752	1493
19	1428	0.000554752	1493
19	1492	0.000578752	1493
19	1556	0.000602752	1493
19	1620	0.000626752	1493
19	1684	0.000650752	1493
19	1748	0.000674752	1493
19	1812	0.000698752	1493
19	1876	0.000722752	1493
19	1940	0.000746752	1493
19	2004	0.000770752	1493
19	2068	0.000794752	1493
19	2132	0.000818752	1493
19	2196	0.000842752	1493
19	2260	0.000866752	1493
19	2324	0.000890752	1493
19	2388	0.000914752	1493
19	2452	0.000938752	1493
19	2516	0.000962752	1493
19	2580	0.000986752	1493
19	2644	0.001010752	1493
19	2708	0.001034752	1493
19	2772	0.001058752	1493
19	2825	0.001082752	1493
20	46	0.000022	1500
20	54	0.000034	1500
20	70	0.000046	1500
20	94	0.000058	1500
20	125	0.00007	1500
20	161	0.000082	1500
20	197	0.000094	1500
20	233	0.000106	1500
20	269	0.000118	1500
20	308	0.000134752	1500
20	372	0.000158752	1500
20	436	0.000182752	1500
20	500	0.000206752	1500
20	564	0.000230752	1500
20	628	0.000254752	1500
20	692	0.000278752	1500
20	756	0.000302752	1500
20	820	0.000326752	1500
20	884	0.000350752	1500
20	948	0.000374752	1500
20	1012	0.000398752	1500
20	1076	0.000422752	1500
20	1140	0.000446752	1500
20	1204	0.000470752	1500
20	1268	0.000494752	1500
20	1332	0.000518752	1500
20	1396	0.000542752	1500
20	1460	0.000566752	1500
20	1524	0.000590752	1500
20	1588	0.000614752	1500
20	1652	0.000638752	1500
20	1716	0.000662752	1500
20	1780	0.000686752	1500
20	1844	0.000710752	1500
20	1908	0.000734752	1500
20	1972	0.000758752	1500
20	2036	0.000782752	1500
20	2100	0.000806752	1500
20	2164	0.000830752	1500
20	2228	0.000854752	1500
20	2292	0.000878752	1500
20	2356	0.000902752	1500
20	2420	0.000926752	1500
20	2484	0.000950752	1500
20	2548	0.000974752	1500
20	2612	0.000998752	1500
20	2676	0.001022752	1500
20	2740	0.001046752	1500
20	2801	0.001070752	1500
20	2844	0.001094752	1500
21	46	0.000022	1493
21	54	0.000034	1493
21	70	0.000046	1493
21	94	0.000058	1493
21	125	0.00007	1493
21	161	0.000082	1493
21	197	0.000094	1493
21	233	0.000106	1493
21	269	0.000118	1493
21	308	0.000134752	1493
21	372	0.000158752	1493
21	436	0.000182752	1493
21	500	0.000206752	1493
21	564	0.000230752	1493
21	628	0.000254752	1493
21	692	0.000278752	1493
21	756	0.000302752	1493
21	820	0.000326752	1493
21	884	0.000350752	1493
21	948	0.000374752	1493
21	1012	0.000398752	1493
21	1076	0.000422752	1493
21	1140	0.000446752	1493
21	1204	0.000470752	1493
21	1268	0.000494752	1493
21	1332	0.000518752	1493
21	1396	0.000542752	1493
21	1460	0.000566752	1493
21	1524	0.000590752	1493
21	1588	0.000614752	1493
21	1652	0.000638752	1493
21	1716	0.000662752	1493
21	1780	0.000686752	1493
21	1844	0.000710752	1493
21	1908	0.000734752	1493
21	1972	0.000758752	1493
21	2036	0.000782752	1493
21	2100	0.000806752	1493
21	2164	0.000830752	1493
21	2228	0.000854752	1493
21	2292	0.000878752	1493
21	2356	0.000902752	1493
21	2420	0.000926752	1493
21	2484	0.000950752	1493
21	2548	0.000974752	1493
21	2612	0.000998752	1493
21	2676	0.001022752	1493
21	2740	0.001046752	1493
21	2801	0.001070752	1493
21	2844	0.001094752	1493
22	49	0.000022	1493
22	50	0.000022	1493
22	58	0.000034	1493
22	59	0.000034	1493
22	74	0.000046	1493
22	75	0.000046	1493
22	98	0.000058	1493
22	99	0.000058	1493
22	129	0.00007	1493
22	130	0.00007	1493
22	165	0.000082	1493
22	166	0.000082	1493
22	201	0.000094	1493
22	202	0.000094	1493
22	237	0.000106	1493
22	238	0.000106	1493
22	273	0.000118	1493
22	274	0.000118	1493
22	307	0.00013	1493
22	310	0.000134752	1493
22	342	0.000146752	1493
22	374	0.000158752	1493
22	406	0.000170752	1493
22	438	0.000182752	1493
22	470	0.000194752	1493
22	502	0.000206752	1493
22	534	0.000218752	1493
22	566	0.000230752	1493
22	598	0.000242752	1493
22	630	0.000254752	1493
22	662	0.000266752	1493
22	694	0.000278752	1493
22	726	0.000290752	1493
22	758	0.000302752	1493
22	790	0.000314752	1493
22	822	0.000326752	1493
22	854	0.000338752	1493
22	886	0.000350752	1493
22	918	0.000362752	1493
22	950	0.000374752	1493
22	982	0.000386752	1493
22	1014	0.000398752	1493
22	1046	0.000410752	1493
22	1078	0.000422752	1493
22	1110	0.000434752	1493
22	1142	0.000446752	1493
22	1174	0.000458752	1493
22	1206	0.000470752	1493
22	1238	0.000482752	1493
22	1270	0.000494752	1493
22	1302	0.000506752	1493
22	1334	0.000518752	1493
22	1366	0.000530752	1493
22	1398	0.000542752	1493
22	1430	0.000554752	1493
22	1462	0.000566752	1493
22	1494	0.000578752	1493
22	1526	0.000590752	1493
22	1558	0.000602752	1493
22	1590	0.000614752	1493
22	1622	0.000626752	1493
22	1654	0.000638752	1493
22	1686	0.000650752	1493
22	1718	0.000662752	1493
22	1750	0.000674752	1493
22	1782	0.000686752	1493
22	1814	0.000698752	1493
22	1846	0.000710752	1493
22	1878	0.000722752	1493
22	1910	0.000734752	1493
22	1942	0.000746752	1493
22	1974	0.000758752	1493
22	2006	0.000770752	1493
22	2038	0.000782752	1493
22	2070	0.000794752	1493
22	2102	0.000806752	1493
22	2134	0.000818752	1493
22	2166	0.000830752	1493
22	2198	0.000842752	1493
22	2230	0.000854752	1493
22	2262	0.000866752	1493
22	2294	0.000878752	1493
22	2326	0.000890752	1493
22	2358	0.000902752	1493
22	2390	0.000914752	1493
22	2422	0.000926752	1493
22	2454	0.000938752	1493
22	2486	0.000950752	1493
22	2518	0.000962752	1493
22	2550	0.000974752	1493
22	2582	0.000986752	1493
22	2614	0.000998752	1493
22	2646	0.001010752	1493
22	2678	0.001022752	1493
22	2710	0.001034752	1493
22	2742	0.001046752	1493
22	2774	0.001058752	1493
22	2803	0.001070752	1493
22	2827	0.001082752	1493
22	2846	0.001094752	1493
23	49	0.000022	1493
23	50	0.000022	1493
23	58	0.000034	1493
23	59	0.000034	1493
23	74	0.000046	1493
23	75	0.000046	1493
23	98	0.000058	1493
23	99	0.000058	1493
23	129	0.00007	1493
23	130	0.00007	1493
23	165	0.000082	1493
23	166	0.000082	1493
23	201	0.000094	1493
23	202	0.000094	1493
23	237	0.000106	1493
23	238	0.000106	1493
23	273	0.000118	1493
23	274	0.000118	1493
23	307	0.00013	1493
23	310	0.000134752	1493
23	342	0.000146752	1493
23	374	0.000158752	1493
23	406	0.000170752	1493
23	438	0.000182752	1493
23	470	0.000194752	1493
23	502	0.000206752	1493
23	534	0.000218752	1493
23	566	0.000230752	1493
23	598	0.000242752	1493
23	630	0.000254752	1493
23	662	0.000266752	1493
23	694	0.000278752	1493
23	726	0.000290752	1493
23	758	0.000302752	1493
23	790	0.000314752	1493
23	822	0.000326752	1493
23	854	0.000338752	1493
23	886	0.000350752	1493
23	918	0.000362752	1493
23	950	0.000374752	1493
23	982	0.000386752	1493
23	1014	0.000398752	1493
23	1046	0.000410752	1493
23	1078	0.000422752	1493
23	1110	0.000434752	1493
23	1142	0.000446752	1493
23	1174	0.000458752	1493
23	1206	0.000470752	1493
23	1238	0.000482752	1493
23	1270	0.000494752	1493
23	1302	0.000506752	1493
23	1334	0.000518752	1493
23	1366	0.000530752	1493
23	1398	0.000542752	1493
23	1430	0.000554752	1493
23	1462	0.000566752	1493
23	1494	0.000578752	1493
23	1526	0.000590752	1493
23	1558	0.000602752	1493
23	1590	0.000614752	1493
23	1622	0.000626752	1493
23	1654	0.000638752	1493
23	1686	0.000650752	1493
23	1718	0.000662752	1493
23	1750	0.000674752	1493
23	1782	0.000686752	1493
23	1814	0.000698752	1493
23	1846	0.000710752	1493
23	1878	0.000722752	1493
23	1910	0.000734752	1493
23	1942	0.000746752	1493
23	1974	0.000758752	1493
23	2006	0.000770752	1493
23	2038	0.000782752	1493
23	2070	0.000794752	1493
23	2102	0.000806752	1493
23	2134	0.000818752	1493
23	2166	0.000830752	1493
23	2198	0.000842752	1493
23	2230	0.000854752	1493
23	2262	0.000866752	1493
23	2294	0.000878752	1493
23	2326	0.000890752	1493
23	2358	0.000902752	1493
23	2390	0.000914752	1493
23	2422	0.000926752	1493
23	2454	0.000938752	1493
23	2486	0.000950752	1493
23	2518	0.000962752	1493
23	2550	0.000974752	1493
23	2582	0.000986752	1493
23	2614	0.000998752	1493
23	2646	0.001010752	1493
23	2678	0.001022752	1493
23	2710	0.001034752	1493
23	2742	0.001046752	1493
23	2774	0.001058752	1493
23	2803	0.001070752	1493
23	2827	0.001082752	1493
23	2846	0.001094752	1493
24	49	0.000022	1
24	49	0.000022	0
24	50	0.000022	1
24	55	0.000034	0
24	58	0.000034	1
24	59	0.000034	2
24	71	0.000046	1
24	74	0.000046	2
24	75	0.000046	3
24	95	0.000058	2
24	98	0.000058	3
24	99	0.000058	4
24	126	0.00007	3
24	129	0.00007	4
24	130	0.00007	5
24	162	0.000082	4
24	165	0.000082	5
24	166	0.000082	6
24	198	0.000094	5
24	201	0.000094	6
24	202	0.000094	7
24	234	0.000106	6
24	237	0.000106	7
24	238	0.000106	8
24	270	0.000118	7
24	273	0.000118	8
24	274	0.000118	9
24	305	0.00013	8
24	307	0.00013	9
24	310	0.000134752	10
24	339	0.000142	9
24	342	0.000146752	10
24	371	0.000154	9
24	374	0.000158752	10
24	403	0.000166	9
24	406	0.000170752	10
24	435	0.000178	9
24	438	0.000182752	10
24	467	0.00019	9
24	470	0.000194752	10
24	499	0.000202	9
24	502	0.000206752	10
24	531	0.000214	9
24	534	0.000218752	10
24	563	0.000226	9
24	566	0.000230752	10
24	595	0.000238	9
24	598	0.000242752	10
24	627	0.00025	9
24	630	0.000254752	10
24	659	0.000262	9
24	662	0.000266752	10
24	691	0.000274	9
24	694	0.000278752	10
24	723	0.000286	9
24	726	0.000290752	10
24	755	0.000298	9
24	758	0.000302752	10
24	787	0.00031	9
24	790	0.000314752	10
24	819	0.000322	9
24	822	0.000326752	10
24	851	0.000334	9
24	854	0.000338752	10
24	883	0.000346	9
24	886	0.000350752	10
24	915	0.000358	9
24	918	0.000362752	10
24	947	0.00037	9
24	950	0.000374752	10
24	979	0.000382	9
24	982	0.000386752	10
24	1011	0.000394	9
24	1014	0.000398752	10
24	1043	0.000406	9
24	1046	0.000410752	10
24	1075	0.000418	9
24	1078	0.000422752	10
24	1107	0.00043	9
24	1110	0.000434752	10
24	1139	0.000442	9
24	1142	0.000446752	10
24	1171	0.000454	9
24	1174	0.000458752	10
24	1203	0.000466	9
24	1206	0.000470752	10
24	1235	0.000478	9
24	1238	0.000482752	10
24	1267	0.00049	9
24	1270	0.000494752	10
24	1299	0.000502	9
24	1302	0.000506752	10
24	1331	0.000514	9
24	1334	0.000518752	10
24	1363	0.000526	9
24	1366	0.000530752	10
24	1395	0.000538	9
24	1398	0.000542752	10
24	1427	0.00055	9
24	1430	0.000554752	10
24	1459	0.000562	9
24	1462	0.000566752	10
24	1491	0.000574	9
24	1494	0.000578752	10
24	1523	0.000586	9
24	1526	0.000590752	10
24	1555	0.000598	9
24	1558	0.000602752	10
24	1587	0.00061	9
24	1590	0.000614752	10
24	1619	0.000622	9
24	1622	0.000626752	10
24	1651	0.000634	9
24	1654	0.000638752	10
24	1683	0.000646	9
24	1686	0.000650752	10
24	1715	0.000658	9
24	1718	0.000662752	10
24	1747	0.00067	9
24	1750	0.000674752	10
24	1779	0.000682	9
24	1782	0.000686752	10
24	1811	0.000694	9
24	1814	0.000698752	10
24	1843	0.000706	9
24	1846	0.000710752	10
24	1875	0.000718	9
24	1878	0.000722752	10
24	1907	0.00073	9
24	1910	0.000734752	10
24	1939	0.000742	9
24	1942	0.000746752	10
24	1971	0.000754	9
24	1974	0.000758752	10
24	2003	0.000766	9
24	2006	0.000770752	10
24	2035	0.000778	9
24	2038	0.000782752	10
24	2067	0.00079	9
24	2070	0.000794752	10
24	2099	0.000802	9
24	2102	0.000806752	10
24	2131	0.000814	9
24	2134	0.000818752	10
24	2163	0.000826	9
24	2166	0.000830752	10
24	2195	0.000838	9
24	2198	0.000842752	10
24	2227	0.00085	9
24	2230	0.000854752	10
24	2259	0.000862	9
24	2262	0.000866752	10
24	2291	0.000874	9
24	2294	0.000878752	10
24	2323	0.000886	9
24	2326	0.000890752	10
24	2355	0.000898	9
24	2358	0.000902752	10
24	2387	0.00091	9
24	2390	0.000914752	10
24	2419	0.000922	9
24	2422	0.000926752	10
24	2451	0.000934	9
24	2454	0.000938752	10
24	2483	0.000946	9
24	2486	0.000950752	10
24	2515	0.000958	9
24	2518	0.000962752	10
24	2547	0.00097	9
24	2550	0.000974752	10
24	2579	0.000982	9
24	2582	0.000986752	10
24	2611	0.000994	9
24	2614	0.000998752	10
24	2643	0.001006	9
24	2646	0.001010752	10
24	2675	0.001018	9
24	2678	0.001022752	10
24	2707	0.00103	9
24	2710	0.001034752	10
24	2739	0.001042	9
24	2742	0.001046752	10
24	2771	0.001054	9
24	2774	0.001058752	10
24	2800	0.001066	9
24	2803	0.001070752	10
24	2824	0.001078	9
24	2827	0.001082752	10
24	2843	0.00109	9
24	2846	0.001094752	10
24	2861	0.001102	9
24	2876	0.001114	8
24	2891	0.001126	7
24	2906	0.001138	6
24	2921	0.00115	5
24	2936	0.001162	4
24	2951	0.001174	3
24	2966	0.001186	2
24	2981	0.001198	1
24	2996	0.00121	0
25	49	0.000022	1493
25	55	0.000034	1493
25	71	0.000046	1493
25	95	0.000058	1493
25	126	0.00007	1493
25	162	0.000082	1493
25	198	0.000094	1493
25	234	0.000106	1493
25	270	0.000118	1493
25	305	0.00013	1493
25	339	0.000142	1493
25	371	0.000154	1493
25	403	0.000166	1493
25	435	0.000178	1493
25	467	0.00019	1493
25	499	0.000202	1493
25	531	0.000214	1493
25	563	0.000226	1493
25	595	0.000238	1493
25	627	0.00025	1493
25	659	0.000262	1493
25	691	0.000274	1493
25	723	0.000286	1493
25	755	0.000298	1493
25	787	0.00031	1493
25	819	0.000322	1493
25	851	0.000334	1493
25	883	0.000346	1493
25	915	0.000358	1493
25	947	0.00037	1493
25	979	0.000382	1493
25	1011	0.000394	1493
25	1043	0.000406	1493
25	1075	0.000418	1493
25	1107	0.00043	1493
25	1139	0.000442	1493
25	1171	0.000454	1493
25	1203	0.000466	1493
25	1235	0.000478	1493
25	1267	0.00049	1493
25	1299	0.000502	1493
25	1331	0.000514	1493
25	1363	0.000526	1493
25	1395	0.000538	1493
25	1427	0.00055	1493
25	1459	0.000562	1493
25	1491	0.000574	1493
25	1523	0.000586	1493
25	1555	0.000598	1493
25	1587	0.00061	1493
25	1619	0.000622	1493
25	1651	0.000634	1493
25	1683	0.000646	1493
25	1715	0.000658	1493
25	1747	0.00067	1493
25	1779	0.000682	1493
25	1811	0.000694	1493
25	1843	0.000706	1493
25	1875	0.000718	1493
25	1907	0.00073	1493
25	1939	0.000742	1493
25	1971	0.000754	1493
25	2003	0.000766	1493
25	2035	0.000778	1493
25	2067	0.00079	1493
25	2099	0.000802	1493
25	2131	0.000814	1493
25	2163	0.000826	1493
25	2195	0.000838	1493
25	2227	0.00085	1493
25	2259	0.000862	1493
25	2291	0.000874	1493
25	2323	0.000886	1493
25	2355	0.000898	1493
25	2387	0.00091	1493
25	2419	0.000922	1493
25	2451	0.000934	1493
25	2483	0.000946	1493
25	2515	0.000958	1493
25	2547	0.00097	1493
25	2579	0.000982	1493
25	2611	0.000994	1493
25	2643	0.001006	1493
25	2675	0.001018	1493
25	2707	0.00103	1493
25	2739	0.001042	1493
25	2771	0.001054	1493
25	2800	0.001066	1493
25	2824	0.001078	1493
25	2843	0.00109	1493
25	2861	0.001102	1493
25	2876	0.001114	1493
25	2891	0.001126	1493
25	2906	0.001138	1493
25	2921	0.00115	1493
25	2936	0.001162	1493
25	2951	0.001174	1493
25	2966	0.001186	1493
25	2981	0.001198	1493
25	2996	0.00121	1493
26	49	0.000022	0
26	55	0.000034	1.2e-05
26	71	0.000046	1.2e-05
26	95	0.000058	2.4e-05
26	126	0.00007	2.4e-05
26	162	0.000082	3.6e-05
26	198	0.000094	3.6e-05
26	234	0.000106	4.8e-05
26	270	0.000118	4.8e-05
26	305	0.00013	6e-05
26	339	0.000142	6e-05
26	371	0.000154	7.2e-05
26	403	0.000166	7.2e-05
26	435	0.000178	8.4e-05
26	467	0.00019	8.4e-05
26	499	0.000202	9.6e-05
26	531	0.000214	9.6e-05
26	563	0.000226	0.000108
26	595	0.000238	0.000108
26	627	0.00025	0.000115248
26	659	0.000262	0.000115248
26	691	0.000274	0.000115248
26	723	0.000286	0.000115248
26	755	0.000298	0.000115248
26	787	0.00031	0.000115248
26	819	0.000322	0.000115248
26	851	0.000334	0.000115248
26	883	0.000346	0.000115248
26	915	0.000358	0.000115248
26	947	0.00037	0.000115248
26	979	0.000382	0.000115248
26	1011	0.000394	0.000115248
26	1043	0.000406	0.000115248
26	1075	0.000418	0.000115248
26	1107	0.00043	0.000115248
26	1139	0.000442	0.000115248
26	1171	0.000454	0.000115248
26	1203	0.000466	0.000115248
26	1235	0.000478	0.000115248
26	1267	0.00049	0.000115248
26	1299	0.000502	0.000115248
26	1331	0.000514	0.000115248
26	1363	0.000526	0.000115248
26	1395	0.000538	0.000115248
26	1427	0.00055	0.000115248
26	1459	0.000562	0.000115248
26	1491	0.000574	0.000115248
26	1523	0.000586	0.000115248
26	1555	0.000598	0.000115248
26	1587	0.00061	0.000115248
26	1619	0.000622	0.000115248
26	1651	0.000634	0.000115248
26	1683	0.000646	0.000115248
26	1715	0.000658	0.000115248
26	1747	0.00067	0.000115248
26	1779	0.000682	0.000115248
26	1811	0.000694	0.000115248
26	1843	0.000706	0.000115248
26	1875	0.000718	0.000115248
26	1907	0.00073	0.000115248
26	1939	0.000742	0.000115248
26	1971	0.000754	0.000115248
26	2003	0.000766	0.000115248
26	2035	0.000778	0.000115248
26	2067	0.00079	0.000115248
26	2099	0.000802	0.000115248
26	2131	0.000814	0.000115248
26	2163	0.000826	0.000115248
26	2195	0.000838	0.000115248
26	2227	0.00085	0.000115248
26	2259	0.000862	0.000115248
26	2291	0.000874	0.000115248
26	2323	0.000886	0.000115248
26	2355	0.000898	0.000115248
26	2387	0.00091	0.000115248
26	2419	0.000922	0.000115248
26	2451	0.000934	0.000115248
26	2483	0.000946	0.000115248
26	2515	0.000958	0.000115248
26	2547	0.00097	0.000115248
26	2579	0.000982	0.000115248
26	2611	0.000994	0.000115248
26	2643	0.001006	0.000115248
26	2675	0.001018	0.000115248
26	2707	0.00103	0.000115248
26	2739	0.001042	0.000115248
26	2771	0.001054	0.000115248
26	2800	0.001066	0.000115248
26	2824	0.001078	0.000115248
26	2843	0.00109	0.000115248
26	2861	0.001102	0.000115248
26	2876	0.001114	0.000115248
26	2891	0.001126	0.000115248
26	2906	0.001138	0.000115248
26	2921	0.00115	0.000115248
26	2936	0.001162	0.000115248
26	2951	0.001174	0.000115248
26	2966	0.001186	0.000115248
26	2981	0.001198	0.000115248
26	2996	0.00121	0.000115248
27	49	0.000022	1500
27	55	0.000034	1500
27	71	0.000046	1500
27	95	0.000058	1500
27	126	0.00007	1500
27	162	0.000082	1500
27	198	0.000094	1500
27	234	0.000106	1500
27	270	0.000118	1500
27	305	0.00013	1500
27	339	0.000142	1500
27	371	0.000154	1500
27	403	0.000166	1500
27	435	0.000178	1500
27	467	0.00019	1500
27	499	0.000202	1500
27	531	0.000214	1500
27	563	0.000226	1500
27	595	0.000238	1500
27	627	0.00025	1500
27	659	0.000262	1500
27	691	0.000274	1500
27	723	0.000286	1500
27	755	0.000298	1500
27	787	0.00031	1500
27	819	0.000322	1500
27	851	0.000334	1500
27	883	0.000346	1500
27	915	0.000358	1500
27	947	0.00037	1500
27	979	0.000382	1500
27	1011	0.000394	1500
27	1043	0.000406	1500
27	1075	0.000418	1500
27	1107	0.00043	1500
27	1139	0.000442	1500
27	1171	0.000454	1500
27	1203	0.000466	1500
27	1235	0.000478	1500
27	1267	0.00049	1500
27	1299	0.000502	1500
27	1331	0.000514	1500
27	1363	0.000526	1500
27	1395	0.000538	1500
27	1427	0.00055	1500
27	1459	0.000562	1500
27	1491	0.000574	1500
27	1523	0.000586	1500
27	1555	0.000598	1500
27	1587	0.00061	1500
27	1619	0.000622	1500
27	1651	0.000634	1500
27	1683	0.000646	1500
27	1715	0.000658	1500
27	1747	0.00067	1500
27	1779	0.000682	1500
27	1811	0.000694	1500
27	1843	0.000706	1500
27	1875	0.000718	1500
27	1907	0.00073	1500
27	1939	0.000742	1500
27	1971	0.000754	1500
27	2003	0.000766	1500
27	2035	0.000778	1500
27	2067	0.00079	1500
27	2099	0.000802	1500
27	2131	0.000814	1500
27	2163	0.000826	1500
27	2195	0.000838	1500
27	2227	0.00085	1500
27	2259	0.000862	1500
27	2291	0.000874	1500
27	2323	0.000886	1500
27	2355	0.000898	1500
27	2387	0.00091	1500
27	2419	0.000922	1500
27	2451	0.000934	1500
27	2483	0.000946	1500
27	2515	0.000958	1500
27	2547	0.00097	1500
27	2579	0.000982	1500
27	2611	0.000994	1500
27	2643	0.001006	1500
27	2675	0.001018	1500
27	2707	0.00103	1500
27	2739	0.001042	1500
27	2771	0.001054	1500
27	2800	0.001066	1500
27	2824	0.001078	1500
27	2843	0.00109	1500
27	2861	0.001102	1500
27	2876	0.001114	1500
27	2891	0.001126	1500
27	2906	0.001138	1500
27	2921	0.00115	1500
27	2936	0.001162	1500
27	2951	0.001174	1500
27	2966	0.001186	1500
27	2981	0.001198	1500
27	2996	0.00121	1500
28	62	0.000044	1500
28	82	0.000056	1500
28	113	0.000068	1500
28	149	0.00008	1500
28	185	0.000092	1500
28	221	0.000104	1500
28	257	0.000116	1500
28	293	0.000128	1500
28	328	0.00014	1500
28	360	0.000152	1500
28	392	0.000164	1500
28	424	0.000176	1500
28	456	0.000188	1500
28	488	0.0002	1500
28	520	0.000212	1500
28	552	0.000224	1500
28	584	0.000236	1500
28	616	0.000248	1500
28	648	0.00026	1500
28	680	0.000272	1500
28	712	0.000284	1500
28	744	0.000296	1500
28	776	0.000308	1500
28	808	0.00032	1500
28	840	0.000332	1500
28	872	0.000344	1500
28	904	0.000356	1500
28	936	0.000368	1500
28	968	0.00038	1500
28	1000	0.000392	1500
28	1032	0.000404	1500
28	1064	0.000416	1500
28	1096	0.000428	1500
28	1128	0.00044	1500
28	1160	0.000452	1500
28	1192	0.000464	1500
28	1224	0.000476	1500
28	1256	0.000488	1500
28	1288	0.0005	1500
28	1320	0.000512	1500
28	1352	0.000524	1500
28	1384	0.000536	1500
28	1416	0.000548	1500
28	1448	0.00056	1500
28	1480	0.000572	1500
28	1512	0.000584	1500
28	1544	0.000596	1500
28	1576	0.000608	1500
28	1608	0.00062	1500
28	1640	0.000632	1500
28	1672	0.000644	1500
28	1704	0.000656	1500
28	1736	0.000668	1500
28	1768	0.00068	1500
28	1800	0.000692	1500
28	1832	0.000704	1500
28	1864	0.000716	1500
28	1896	0.000728	1500
28	1928	0.00074	1500
28	1960	0.000752	1500
28	1992	0.000764	1500
28	2024	0.000776	1500
28	2056	0.000788	1500
28	2088	0.0008	1500
28	2120	0.000812	1500
28	2152	0.000824	1500
28	2184	0.000836	1500
28	2216	0.000848	1500
28	2248	0.00086	1500
28	2280	0.000872	1500
28	2312	0.000884	1500
28	2344	0.000896	1500
28	2376	0.000908	1500
28	2408	0.00092	1500
28	2440	0.000932	1500
28	2472	0.000944	1500
28	2504	0.000956	1500
28	2536	0.000968	1500
28	2568	0.00098	1500
28	2600	0.000992	1500
28	2632	0.001004	1500
28	2664	0.001016	1500
28	2696	0.001028	1500
28	2728	0.00104	1500
28	2760	0.001052	1500
28	2792	0.001064	1500
28	2817	0.001076	1500
28	2836	0.001088	1500
28	2854	0.0011	1500
28	2869	0.001112	1500
28	2884	0.001124	1500
28	2899	0.001136	1500
28	2914	0.001148	1500
28	2929	0.00116	1500
28	2944	0.001172	1500
28	2959	0.001184	1500
28	2974	0.001196	1500
28	2989	0.001208	1500
28	3004	0.00122	1500
28	3020	0.001232	1500
29	62	0.000044	1493
29	82	0.000056	1493
29	113	0.000068	1493
29	149	0.00008	1493
29	185	0.000092	1493
29	221	0.000104	1493
29	257	0.000116	1493
29	293	0.000128	1493
29	328	0.00014	1493
29	360	0.000152	1493
29	392	0.000164	1493
29	424	0.000176	1493
29	456	0.000188	1493
29	488	0.0002	1493
29	520	0.000212	1493
29	552	0.000224	1493
29	584	0.000236	1493
29	616	0.000248	1493
29	648	0.00026	1493
29	680	0.000272	1493
29	712	0.000284	1493
29	744	0.000296	1493
29	776	0.000308	1493
29	808	0.00032	1493
29	840	0.000332	1493
29	872	0.000344	1493
29	904	0.000356	1493
29	936	0.000368	1493
29	968	0.00038	1493
29	1000	0.000392	1493
29	1032	0.000404	1493
29	1064	0.000416	1493
29	1096	0.000428	1493
29	1128	0.00044	1493
29	1160	0.000452	1493
29	1192	0.000464	1493
29	1224	0.000476	1493
29	1256	0.000488	1493
29	1288	0.0005	1493
29	1320	0.000512	1493
29	1352	0.000524	1493
29	1384	0.000536	1493
29	1416	0.000548	1493
29	1448	0.00056	1493
29	1480	0.000572	1493
29	1512	0.000584	1493
29	1544	0.000596	1493
29	1576	0.000608	1493
29	1608	0.00062	1493
29	1640	0.000632	1493
29	1672	0.000644	1493
29	1704	0.000656	1493
29	1736	0.000668	1493
29	1768	0.00068	1493
29	1800	0.000692	1493
29	1832	0.000704	1493
29	1864	0.000716	1493
29	1896	0.000728	1493
29	1928	0.00074	1493
29	1960	0.000752	1493
29	1992	0.000764	1493
29	2024	0.000776	1493
29	2056	0.000788	1493
29	2088	0.0008	1493
29	2120	0.000812	1493
29	2152	0.000824	1493
29	2184	0.000836	1493
29	2216	0.000848	1493
29	2248	0.00086	1493
29	2280	0.000872	1493
29	2312	0.000884	1493
29	2344	0.000896	1493
29	2376	0.000908	1493
29	2408	0.00092	1493
29	2440	0.000932	1493
29	2472	0.000944	1493
29	2504	0.000956	1493
29	2536	0.000968	1493
29	2568	0.00098	1493
29	2600	0.000992	1493
29	2632	0.001004	1493
29	2664	0.001016	1493
29	2696	0.001028	1493
29	2728	0.00104	1493
29	2760	0.001052	1493
29	2792	0.001064	1493
29	2817	0.001076	1493
29	2836	0.001088	1493
29	2854	0.0011	1493
29	2869	0.001112	1493
29	2884	0.001124	1493
29	2899	0.001136	1493
29	2914	0.001148	1493
29	2929	0.00116	1493
29	2944	0.001172	1493
29	2959	0.001184	1493
29	2974	0.001196	1493
29	2989	0.001208	1493
29	3004	0.00122	1493
29	3020	0.001232	1493
30	66	0.000044	1500
30	120	0.000068	1500
30	192	0.000092	1500
30	264	0.000116	1500
30	335	0.00014	1500
30	399	0.000164	1500
30	463	0.000188	1500
30	527	0.000212	1500
30	591	0.000236	1500
30	655	0.00026	1500
30	719	0.000284	1500
30	783	0.000308	1500
30	847	0.000332	1500
30	911	0.000356	1500
30	975	0.00038	1500
30	1039	0.000404	1500
30	1103	0.000428	1500
30	1167	0.000452	1500
30	1231	0.000476	1500
30	1295	0.0005	1500
30	1359	0.000524	1500
30	1423	0.000548	1500
30	1487	0.000572	1500
30	1551	0.000596	1500
30	1615	0.00062	1500
30	1679	0.000644	1500
30	1743	0.000668	1500
30	1807	0.000692	1500
30	1871	0.000716	1500
30	1935	0.00074	1500
30	1999	0.000764	1500
30	2063	0.000788	1500
30	2127	0.000812	1500
30	2191	0.000836	1500
30	2255	0.00086	1500
30	2319	0.000884	1500
30	2383	0.000908	1500
30	2447	0.000932	1500
30	2511	0.000956	1500
30	2575	0.00098	1500
30	2639	0.001004	1500
30	2703	0.001028	1500
30	2767	0.001052	1500
30	2821	0.001076	1500
30	2858	0.0011	1500
30	2888	0.001124	1500
30	2918	0.001148	1500
30	2948	0.001172	1500
30	2978	0.001196	1500
30	3008	0.00122	1500
31	66	0.000044	272727272.72727
31	120	0.000068	500000000
31	192	0.000092	500000000
31	264	0.000116	500000000
31	335	0.00014	500000000
31	399	0.000164	500000000
31	463	0.000188	500000000
31	527	0.000212	500000000
31	591	0.000236	500000000
31	655	0.00026	500000000
31	719	0.000284	500000000
31	783	0.000308	500000000
31	847	0.000332	500000000
31	911	0.000356	500000000
31	975	0.00038	500000000
31	1039	0.000404	500000000
31	1103	0.000428	500000000
31	1167	0.000452	500000000
31	1231	0.000476	500000000
31	1295	0.0005	500000000
31	1359	0.000524	500000000
31	1423	0.000548	500000000
31	1487	0.000572	500000000
31	1551	0.000596	500000000
31	1615	0.00062	500000000
31	1679	0.000644	500000000
31	1743	0.000668	500000000
31	1807	0.000692	500000000
31	1871	0.000716	500000000
31	1935	0.00074	500000000
31	1999	0.000764	500000000
31	2063	0.000788	500000000
31	2127	0.000812	500000000
31	2191	0.000836	500000000
31	2255	0.00086	500000000
31	2319	0.000884	500000000
31	2383	0.000908	500000000
31	2447	0.000932	500000000
31	2511	0.000956	500000000
31	2575	0.00098	500000000
31	2639	0.001004	500000000
31	2703	0.001028	500000000
31	2767	0.001052	500000000
31	2821	0.001076	500000000
31	2858	0.0011	500000000
31	2888	0.001124	500000000
31	2918	0.001148	500000000
31	2948	0.001172	500000000
31	2978	0.001196	500000000
31	3008	0.00122	500000000
32	67	0.000044	40
32	87	0.000056	40
32	90	0.000056	40
32	118	0.000068	40
32	121	0.000068	40
32	154	0.00008	40
32	157	0.00008	40
32	190	0.000092	40
32	193	0.000092	40
32	226	0.000104	40
32	229	0.000104	40
32	262	0.000116	40
32	265	0.000116	40
32	298	0.000128	40
32	301	0.000128	40
32	333	0.00014	40
32	336	0.00014	40
32	365	0.000152	40
32	368	0.000152	40
32	397	0.000164	40
32	400	0.000164	40
32	429	0.000176	40
32	432	0.000176	40
32	461	0.000188	40
32	464	0.000188	40
32	493	0.0002	40
32	496	0.0002	40
32	525	0.000212	40
32	528	0.000212	40
32	557	0.000224	40
32	560	0.000224	40
32	589	0.000236	40
32	592	0.000236	40
32	621	0.000248	40
32	624	0.000248	40
32	653	0.00026	40
32	656	0.00026	40
32	685	0.000272	40
32	688	0.000272	40
32	717	0.000284	40
32	720	0.000284	40
32	749	0.000296	40
32	752	0.000296	40
32	781	0.000308	40
32	784	0.000308	40
32	813	0.00032	40
32	816	0.00032	40
32	845	0.000332	40
32	848	0.000332	40
32	877	0.000344	40
32	880	0.000344	40
32	909	0.000356	40
32	912	0.000356	40
32	941	0.000368	40
32	944	0.000368	40
32	973	0.00038	40
32	976	0.00038	40
32	1005	0.000392	40
32	1008	0.000392	40
32	1037	0.000404	40
32	1040	0.000404	40
32	1069	0.000416	40
32	1072	0.000416	40
32	1101	0.000428	40
32	1104	0.000428	40
32	1133	0.00044	40
32	1136	0.00044	40
32	1165	0.000452	40
32	1168	0.000452	40
32	1197	0.000464	40
32	1200	0.000464	40
32	1229	0.000476	40
32	1232	0.000476	40
32	1261	0.000488	40
32	1264	0.000488	40
32	1293	0.0005	40
32	1296	0.0005	40
32	1325	0.000512	40
32	1328	0.000512	40
32	1357	0.000524	40
32	1360	0.000524	40
32	1389	0.000536	40
32	1392	0.000536	40
32	1421	0.000548	40
32	1424	0.000548	40
32	1453	0.00056	40
32	1456	0.00056	40
32	1485	0.000572	40
32	1488	0.000572	40
32	1517	0.000584	40
32	1520	0.000584	40
32	1549	0.000596	40
32	1552	0.000596	40
32	1581	0.000608	40
32	1584	0.000608	40
32	1613	0.00062	40
32	1616	0.00062	40
32	1645	0.000632	40
32	1648	0.000632	40
32	1677	0.000644	40
32	1680	0.000644	40
32	1709	0.000656	40
32	1712	0.000656	40
32	1741	0.000668	40
32	1744	0.000668	40
32	1773	0.00068	40
32	1776	0.00068	40
32	1805	0.000692	40
32	1808	0.000692	40
32	1837	0.000704	40
32	1840	0.000704	40
32	1869	0.000716	40
32	1872	0.000716	40
32	1901	0.000728	40
[...]
49	1021	0.000401128	40
49	1048	0.000412752	40
49	1085	0.000425128	40
49	1112	0.000436752	40
49	1149	0.000449128	40
49	1176	0.000460752	40
49	1213	0.000473128	40
49	1240	0.000484752	40
49	1277	0.000497128	40
49	1304	0.000508752	40
49	1341	0.000521128	40
49	1368	0.000532752	40
49	1405	0.000545128	40
49	1432	0.000556752	40
49	1469	0.000569128	40
49	1496	0.000580752	40
49	1533	0.000593128	40
49	1560	0.000604752	40
49	1597	0.000617128	40
49	1624	0.000628752	40
49	1661	0.000641128	40
49	1688	0.000652752	40
49	1725	0.000665128	40
49	1752	0.000676752	40
49	1789	0.000689128	40
49	1816	0.000700752	40
49	1853	0.000713128	40
49	1880	0.000724752	40
49	1917	0.000737128	40
49	1944	0.000748752	40
49	1981	0.000761128	40
49	2008	0.000772752	40
49	2045	0.000785128	40
49	2072	0.000796752	40
49	2109	0.000809128	40
49	2136	0.000820752	40
49	2173	0.000833128	40
49	2200	0.000844752	40
49	2237	0.000857128	40
49	2264	0.000868752	40
49	2301	0.000881128	40
49	2328	0.000892752	40
49	2365	0.000905128	40
49	2392	0.000916752	40
49	2429	0.000929128	40
49	2456	0.000940752	40
49	2493	0.000953128	40
49	2520	0.000964752	40
49	2557	0.000977128	40
49	2584	0.000988752	40
49	2621	0.001001128	40
49	2648	0.001012752	40
49	2685	0.001025128	40
49	2712	0.001036752	40
49	2749	0.001049128	40
49	2776	0.001060752	40
49	2810	0.001073128	40
49	2847	0.001096752	40
49	2877	0.001120752	40
49	2907	0.001144752	40
49	2937	0.001168752	40
49	2967	0.001192752	40
49	2997	0.001216752	40
49	3028	0.001240752	40
50	111	0.000066752	40
50	143	0.000078376	40
50	183	0.000090752	40
50	215	0.000102376	40
50	255	0.000114752	40
50	287	0.000126376	40
50	326	0.000138752	40
50	354	0.000150376	40
50	390	0.000162752	40
50	418	0.000174376	40
50	454	0.000186752	40
50	482	0.000198376	40
50	518	0.000210752	40
50	546	0.000222376	40
50	582	0.000234752	40
50	610	0.000246376	40
50	646	0.000258752	40
50	674	0.000270376	40
50	710	0.000282752	40
50	738	0.000294376	40
50	774	0.000306752	40
50	802	0.000318376	40
50	838	0.000330752	40
50	866	0.000342376	40
50	902	0.000354752	40
50	930	0.000366376	40
50	966	0.000378752	40
50	994	0.000390376	40
50	1030	0.000402752	40
50	1058	0.000414376	40
50	1094	0.000426752	40
50	1122	0.000438376	40
50	1158	0.000450752	40
50	1186	0.000462376	40
50	1222	0.000474752	40
50	1250	0.000486376	40
50	1286	0.000498752	40
50	1314	0.000510376	40
50	1350	0.000522752	40
50	1378	0.000534376	40
50	1414	0.000546752	40
50	1442	0.000558376	40
50	1478	0.000570752	40
50	1506	0.000582376	40
50	1542	0.000594752	40
50	1570	0.000606376	40
50	1606	0.000618752	40
50	1634	0.000630376	40
50	1670	0.000642752	40
50	1698	0.000654376	40
50	1734	0.000666752	40
50	1762	0.000678376	40
50	1798	0.000690752	40
50	1826	0.000702376	40
50	1862	0.000714752	40
50	1890	0.000726376	40
50	1926	0.000738752	40
50	1954	0.000750376	40
50	1990	0.000762752	40
50	2018	0.000774376	40
50	2054	0.000786752	40
50	2082	0.000798376	40
50	2118	0.000810752	40
50	2146	0.000822376	40
50	2182	0.000834752	40
50	2210	0.000846376	40
50	2246	0.000858752	40
50	2274	0.000870376	40
50	2310	0.000882752	40
50	2338	0.000894376	40
50	2374	0.000906752	40
50	2402	0.000918376	40
50	2438	0.000930752	40
50	2466	0.000942376	40
50	2502	0.000954752	40
50	2530	0.000966376	40
50	2566	0.000978752	40
50	2594	0.000990376	40
50	2630	0.001002752	40
50	2658	0.001014376	40
50	2694	0.001026752	40
50	2722	0.001038376	40
50	2758	0.001050752	40
50	2786	0.001062376	40
50	2815	0.001074376	40
50	2852	0.001098376	40
50	2882	0.001122376	40
50	2912	0.001146376	40
50	2942	0.001170376	40
50	2972	0.001194376	40
50	3002	0.001218376	40
50	3033	0.001242376	40
51	111	0.000066752	40
51	143	0.000078376	40
51	183	0.000090752	40
51	215	0.000102376	40
51	255	0.000114752	40
51	287	0.000126376	40
51	326	0.000138752	40
51	354	0.000150376	40
51	390	0.000162752	40
51	418	0.000174376	40
51	454	0.000186752	40
51	482	0.000198376	40
51	518	0.000210752	40
51	546	0.000222376	40
51	582	0.000234752	40
51	610	0.000246376	40
51	646	0.000258752	40
51	674	0.000270376	40
51	710	0.000282752	40
51	738	0.000294376	40
51	774	0.000306752	40
51	802	0.000318376	40
51	838	0.000330752	40
51	866	0.000342376	40
51	902	0.000354752	40
51	930	0.000366376	40
51	966	0.000378752	40
51	994	0.000390376	40
51	1030	0.000402752	40
51	1058	0.000414376	40
51	1094	0.000426752	40
51	1122	0.000438376	40
51	1158	0.000450752	40
51	1186	0.000462376	40
51	1222	0.000474752	40
51	1250	0.000486376	40
51	1286	0.000498752	40
51	1314	0.000510376	40
51	1350	0.000522752	40
51	1378	0.000534376	40
51	1414	0.000546752	40
51	1442	0.000558376	40
51	1478	0.000570752	40
51	1506	0.000582376	40
51	1542	0.000594752	40
51	1570	0.000606376	40
51	1606	0.000618752	40
51	1634	0.000630376	40
51	1670	0.000642752	40
51	1698	0.000654376	40
51	1734	0.000666752	40
51	1762	0.000678376	40
51	1798	0.000690752	40
51	1826	0.000702376	40
51	1862	0.000714752	40
51	1890	0.000726376	40
51	1926	0.000738752	40
51	1954	0.000750376	40
51	1990	0.000762752	40
51	2018	0.000774376	40
51	2054	0.000786752	40
51	2082	0.000798376	40
51	2118	0.000810752	40
51	2146	0.000822376	40
51	2182	0.000834752	40
51	2210	0.000846376	40
51	2246	0.000858752	40
51	2274	0.000870376	40
51	2310	0.000882752	40
51	2338	0.000894376	40
51	2374	0.000906752	40
51	2402	0.000918376	40
51	2438	0.000930752	40
51	2466	0.000942376	40
51	2502	0.000954752	40
51	2530	0.000966376	40
51	2566	0.000978752	40
51	2594	0.000990376	40
51	2630	0.001002752	40
51	2658	0.001014376	40
51	2694	0.001026752	40
51	2722	0.001038376	40
51	2758	0.001050752	40
51	2786	0.001062376	40
51	2815	0.001074376	40
51	2852	0.001098376	40
51	2882	0.001122376	40
51	2912	0.001146376	40
51	2942	0.001170376	40
51	2972	0.001194376	40
51	3002	0.001218376	40
51	3033	0.001242376	40
52	111	0.000066752	1
52	111	0.000066752	0
52	143	0.000078376	1
52	143	0.000078376	0
52	183	0.000090752	1
52	183	0.000090752	0
52	215	0.000102376	1
52	215	0.000102376	0
52	255	0.000114752	1
52	255	0.000114752	0
52	287	0.000126376	1
52	287	0.000126376	0
52	326	0.000138752	1
52	326	0.000138752	0
52	354	0.000150376	1
52	354	0.000150376	0
52	390	0.000162752	1
52	390	0.000162752	0
52	418	0.000174376	1
52	418	0.000174376	0
52	454	0.000186752	1
52	454	0.000186752	0
52	482	0.000198376	1
52	482	0.000198376	0
52	518	0.000210752	1
52	518	0.000210752	0
52	546	0.000222376	1
52	546	0.000222376	0
52	582	0.000234752	1
52	582	0.000234752	0
52	610	0.000246376	1
52	610	0.000246376	0
52	646	0.000258752	1
52	646	0.000258752	0
52	674	0.000270376	1
52	674	0.000270376	0
52	710	0.000282752	1
52	710	0.000282752	0
52	738	0.000294376	1
52	738	0.000294376	0
52	774	0.000306752	1
52	774	0.000306752	0
52	802	0.000318376	1
52	802	0.000318376	0
52	838	0.000330752	1
52	838	0.000330752	0
52	866	0.000342376	1
52	866	0.000342376	0
52	902	0.000354752	1
52	902	0.000354752	0
52	930	0.000366376	1
52	930	0.000366376	0
52	966	0.000378752	1
52	966	0.000378752	0
52	994	0.000390376	1
52	994	0.000390376	0
52	1030	0.000402752	1
52	1030	0.000402752	0
52	1058	0.000414376	1
52	1058	0.000414376	0
52	1094	0.000426752	1
52	1094	0.000426752	0
52	1122	0.000438376	1
52	1122	0.000438376	0
52	1158	0.000450752	1
52	1158	0.000450752	0
52	1186	0.000462376	1
52	1186	0.000462376	0
52	1222	0.000474752	1
52	1222	0.000474752	0
52	1250	0.000486376	1
52	1250	0.000486376	0
52	1286	0.000498752	1
52	1286	0.000498752	0
52	1314	0.000510376	1
52	1314	0.000510376	0
52	1350	0.000522752	1
52	1350	0.000522752	0
52	1378	0.000534376	1
52	1378	0.000534376	0
52	1414	0.000546752	1
52	1414	0.000546752	0
52	1442	0.000558376	1
52	1442	0.000558376	0
52	1478	0.000570752	1
52	1478	0.000570752	0
52	1506	0.000582376	1
52	1506	0.000582376	0
52	1542	0.000594752	1
52	1542	0.000594752	0
52	1570	0.000606376	1
52	1570	0.000606376	0
52	1606	0.000618752	1
52	1606	0.000618752	0
52	1634	0.000630376	1
52	1634	0.000630376	0
52	1670	0.000642752	1
52	1670	0.000642752	0
52	1698	0.000654376	1
52	1698	0.000654376	0
52	1734	0.000666752	1
52	1734	0.000666752	0
52	1762	0.000678376	1
52	1762	0.000678376	0
52	1798	0.000690752	1
52	1798	0.000690752	0
52	1826	0.000702376	1
52	1826	0.000702376	0
52	1862	0.000714752	1
52	1862	0.000714752	0
52	1890	0.000726376	1
52	1890	0.000726376	0
52	1926	0.000738752	1
52	1926	0.000738752	0
52	1954	0.000750376	1
52	1954	0.000750376	0
52	1990	0.000762752	1
52	1990	0.000762752	0
52	2018	0.000774376	1
52	2018	0.000774376	0
52	2054	0.000786752	1
52	2054	0.000786752	0
52	2082	0.000798376	1
52	2082	0.000798376	0
52	2118	0.000810752	1
52	2118	0.000810752	0
52	2146	0.000822376	1
52	2146	0.000822376	0
52	2182	0.000834752	1
52	2182	0.000834752	0
52	2210	0.000846376	1
52	2210	0.000846376	0
52	2246	0.000858752	1
52	2246	0.000858752	0
52	2274	0.000870376	1
52	2274	0.000870376	0
52	2310	0.000882752	1
52	2310	0.000882752	0
52	2338	0.000894376	1
52	2338	0.000894376	0
52	2374	0.000906752	1
52	2374	0.000906752	0
52	2402	0.000918376	1
52	2402	0.000918376	0
52	2438	0.000930752	1
52	2438	0.000930752	0
52	2466	0.000942376	1
52	2466	0.000942376	0
52	2502	0.000954752	1
52	2502	0.000954752	0
52	2530	0.000966376	1
52	2530	0.000966376	0
52	2566	0.000978752	1
52	2566	0.000978752	0
52	2594	0.000990376	1
52	2594	0.000990376	0
52	2630	0.001002752	1
52	2630	0.001002752	0
52	2658	0.001014376	1
52	2658	0.001014376	0
52	2694	0.001026752	1
52	2694	0.001026752	0
52	2722	0.001038376	1
52	2722	0.001038376	0
52	2758	0.001050752	1
52	2758	0.001050752	0
52	2786	0.001062376	1
52	2786	0.001062376	0
52	2815	0.001074376	1
52	2815	0.001074376	0
52	2852	0.001098376	1
52	2852	0.001098376	0
52	2882	0.001122376	1
52	2882	0.001122376	0
52	2912	0.001146376	1
52	2912	0.001146376	0
52	2942	0.001170376	1
52	2942	0.001170376	0
52	2972	0.001194376	1
52	2972	0.001194376	0
52	3002	0.001218376	1
52	3002	0.001218376	0
52	3033	0.001242376	1
52	3033	0.001242376	0
53	111	0.000066752	40
53	143	0.000078376	40
53	183	0.000090752	40
53	215	0.000102376	40
53	255	0.000114752	40
53	287	0.000126376	40
53	326	0.000138752	40
53	354	0.000150376	40
53	390	0.000162752	40
53	418	0.000174376	40
53	454	0.000186752	40
53	482	0.000198376	40
53	518	0.000210752	40
53	546	0.000222376	40
53	582	0.000234752	40
53	610	0.000246376	40
53	646	0.000258752	40
53	674	0.000270376	40
53	710	0.000282752	40
53	738	0.000294376	40
53	774	0.000306752	40
53	802	0.000318376	40
53	838	0.000330752	40
53	866	0.000342376	40
53	902	0.000354752	40
53	930	0.000366376	40
53	966	0.000378752	40
53	994	0.000390376	40
53	1030	0.000402752	40
53	1058	0.000414376	40
53	1094	0.000426752	40
53	1122	0.000438376	40
53	1158	0.000450752	40
53	1186	0.000462376	40
53	1222	0.000474752	40
53	1250	0.000486376	40
53	1286	0.000498752	40
53	1314	0.000510376	40
53	1350	0.000522752	40
53	1378	0.000534376	40
53	1414	0.000546752	40
53	1442	0.000558376	40
53	1478	0.000570752	40
53	1506	0.000582376	40
53	1542	0.000594752	40
53	1570	0.000606376	40
53	1606	0.000618752	40
53	1634	0.000630376	40
53	1670	0.000642752	40
53	1698	0.000654376	40
53	1734	0.000666752	40
53	1762	0.000678376	40
53	1798	0.000690752	40
53	1826	0.000702376	40
53	1862	0.000714752	40
53	1890	0.000726376	40
53	1926	0.000738752	40
53	1954	0.000750376	40
53	1990	0.000762752	40
53	2018	0.000774376	40
53	2054	0.000786752	40
53	2082	0.000798376	40
53	2118	0.000810752	40
53	2146	0.000822376	40
53	2182	0.000834752	40
53	2210	0.000846376	40
53	2246	0.000858752	40
53	2274	0.000870376	40
53	2310	0.000882752	40
53	2338	0.000894376	40
53	2374	0.000906752	40
53	2402	0.000918376	40
53	2438	0.000930752	40
53	2466	0.000942376	40
53	2502	0.000954752	40
53	2530	0.000966376	40
53	2566	0.000978752	40
53	2594	0.000990376	40
53	2630	0.001002752	40
53	2658	0.001014376	40
53	2694	0.001026752	40
53	2722	0.001038376	40
53	2758	0.001050752	40
53	2786	0.001062376	40
53	2815	0.001074376	40
53	2852	0.001098376	40
53	2882	0.001122376	40
53	2912	0.001146376	40
53	2942	0.001170376	40
53	2972	0.001194376	40
53	3002	0.001218376	40
53	3033	0.001242376	40
54	111	0.000066752	0
54	143	0.000078376	0
54	183	0.000090752	0
54	215	0.000102376	0
54	255	0.000114752	0
54	287	0.000126376	0
54	326	0.000138752	0
54	354	0.000150376	0
54	390	0.000162752	0
54	418	0.000174376	0
54	454	0.000186752	0
54	482	0.000198376	0
54	518	0.000210752	0
54	546	0.000222376	0
54	582	0.000234752	0
54	610	0.000246376	0
54	646	0.000258752	0
54	674	0.000270376	0
54	710	0.000282752	0
54	738	0.000294376	0
54	774	0.000306752	0
54	802	0.000318376	0
54	838	0.000330752	0
54	866	0.000342376	0
54	902	0.000354752	0
54	930	0.000366376	0
54	966	0.000378752	0
54	994	0.000390376	0
54	1030	0.000402752	0
54	1058	0.000414376	0
54	1094	0.000426752	0
54	1122	0.000438376	0
54	1158	0.000450752	0
54	1186	0.000462376	0
54	1222	0.000474752	0
54	1250	0.000486376	0
54	1286	0.000498752	0
54	1314	0.000510376	0
54	1350	0.000522752	0
54	1378	0.000534376	0
54	1414	0.000546752	0
54	1442	0.000558376	0
54	1478	0.000570752	0
54	1506	0.000582376	0
54	1542	0.000594752	0
54	1570	0.000606376	0
54	1606	0.000618752	0
54	1634	0.000630376	0
54	1670	0.000642752	0
54	1698	0.000654376	0
54	1734	0.000666752	0
54	1762	0.000678376	0
54	1798	0.000690752	0
54	1826	0.000702376	0
54	1862	0.000714752	0
54	1890	0.000726376	0
54	1926	0.000738752	0
54	1954	0.000750376	0
54	1990	0.000762752	0
54	2018	0.000774376	0
54	2054	0.000786752	0
54	2082	0.000798376	0
54	2118	0.000810752	0
54	2146	0.000822376	0
54	2182	0.000834752	0
54	2210	0.000846376	0
54	2246	0.000858752	0
54	2274	0.000870376	0
54	2310	0.000882752	0
54	2338	0.000894376	0
54	2374	0.000906752	0
54	2402	0.000918376	0
54	2438	0.000930752	0
54	2466	0.000942376	0
54	2502	0.000954752	0
54	2530	0.000966376	0
54	2566	0.000978752	0
54	2594	0.000990376	0
54	2630	0.001002752	0
54	2658	0.001014376	0
54	2694	0.001026752	0
54	2722	0.001038376	0
54	2758	0.001050752	0
54	2786	0.001062376	0
54	2815	0.001074376	0
54	2852	0.001098376	0
54	2882	0.001122376	0
54	2912	0.001146376	0
54	2942	0.001170376	0
54	2972	0.001194376	0
54	3002	0.001218376	0
54	3033	0.001242376	0
55	111	0.000066752	47
55	143	0.000078376	47
55	183	0.000090752	47
55	215	0.000102376	47
55	255	0.000114752	47
55	287	0.000126376	47
55	326	0.000138752	47
55	354	0.000150376	47
55	390	0.000162752	47
55	418	0.000174376	47
55	454	0.000186752	47
55	482	0.000198376	47
55	518	0.000210752	47
55	546	0.000222376	47
55	582	0.000234752	47
55	610	0.000246376	47
55	646	0.000258752	47
55	674	0.000270376	47
55	710	0.000282752	47
55	738	0.000294376	47
55	774	0.000306752	47
55	802	0.000318376	47
55	838	0.000330752	47
55	866	0.000342376	47
55	902	0.000354752	47
55	930	0.000366376	47
55	966	0.000378752	47
55	994	0.000390376	47
55	1030	0.000402752	47
55	1058	0.000414376	47
55	1094	0.000426752	47
55	1122	0.000438376	47
55	1158	0.000450752	47
55	1186	0.000462376	47
55	1222	0.000474752	47
55	1250	0.000486376	47
55	1286	0.000498752	47
55	1314	0.000510376	47
55	1350	0.000522752	47
55	1378	0.000534376	47
55	1414	0.000546752	47
55	1442	0.000558376	47
55	1478	0.000570752	47
55	1506	0.000582376	47
55	1542	0.000594752	47
55	1570	0.000606376	47
55	1606	0.000618752	47
55	1634	0.000630376	47
55	1670	0.000642752	47
55	1698	0.000654376	47
55	1734	0.000666752	47
55	1762	0.000678376	47
55	1798	0.000690752	47
55	1826	0.000702376	47
55	1862	0.000714752	47
55	1890	0.000726376	47
55	1926	0.000738752	47
55	1954	0.000750376	47
55	1990	0.000762752	47
55	2018	0.000774376	47
55	2054	0.000786752	47
55	2082	0.000798376	47
55	2118	0.000810752	47
55	2146	0.000822376	47
55	2182	0.000834752	47
55	2210	0.000846376	47
55	2246	0.000858752	47
55	2274	0.000870376	47
55	2310	0.000882752	47
55	2338	0.000894376	47
55	2374	0.000906752	47
55	2402	0.000918376	47
55	2438	0.000930752	47
55	2466	0.000942376	47
55	2502	0.000954752	47
55	2530	0.000966376	47
55	2566	0.000978752	47
55	2594	0.000990376	47
55	2630	0.001002752	47
55	2658	0.001014376	47
55	2694	0.001026752	47
55	2722	0.001038376	47
55	2758	0.001050752	47
55	2786	0.001062376	47
55	2815	0.001074376	47
55	2852	0.001098376	47
55	2882	0.001122376	47
55	2912	0.001146376	47
55	2942	0.001170376	47
55	2972	0.001194376	47
55	3002	0.001218376	47
55	3033	0.001242376	47
56	138	0.000077128	47
56	169	0.000088752	47
56	210	0.000101128	47
56	241	0.000112752	47
56	282	0.000125128	47
56	312	0.000136752	47
56	349	0.000149128	47
56	376	0.000160752	47
56	413	0.000173128	47
56	440	0.000184752	47
56	477	0.000197128	47
56	504	0.000208752	47
56	541	0.000221128	47
56	568	0.000232752	47
56	605	0.000245128	47
56	632	0.000256752	47
56	669	0.000269128	47
56	696	0.000280752	47
56	733	0.000293128	47
56	760	0.000304752	47
56	797	0.000317128	47
56	824	0.000328752	47
56	861	0.000341128	47
56	888	0.000352752	47
56	925	0.000365128	47
56	952	0.000376752	47
56	989	0.000389128	47
56	1016	0.000400752	47
56	1053	0.000413128	47
56	1080	0.000424752	47
56	1117	0.000437128	47
56	1144	0.000448752	47
56	1181	0.000461128	47
56	1208	0.000472752	47
56	1245	0.000485128	47
56	1272	0.000496752	47
56	1309	0.000509128	47
56	1336	0.000520752	47
56	1373	0.000533128	47
56	1400	0.000544752	47
56	1437	0.000557128	47
56	1464	0.000568752	47
56	1501	0.000581128	47
56	1528	0.000592752	47
56	1565	0.000605128	47
56	1592	0.000616752	47
56	1629	0.000629128	47
56	1656	0.000640752	47
56	1693	0.000653128	47
56	1720	0.000664752	47
56	1757	0.000677128	47
56	1784	0.000688752	47
56	1821	0.000701128	47
56	1848	0.000712752	47
56	1885	0.000725128	47
56	1912	0.000736752	47
56	1949	0.000749128	47
56	1976	0.000760752	47
56	2013	0.000773128	47
56	2040	0.000784752	47
56	2077	0.000797128	47
56	2104	0.000808752	47
56	2141	0.000821128	47
56	2168	0.000832752	47
56	2205	0.000845128	47
56	2232	0.000856752	47
56	2269	0.000869128	47
56	2296	0.000880752	47
56	2333	0.000893128	47
56	2360	0.000904752	47
56	2397	0.000917128	47
56	2424	0.000928752	47
56	2461	0.000941128	47
56	2488	0.000952752	47
56	2525	0.000965128	47
56	2552	0.000976752	47
56	2589	0.000989128	47
56	2616	0.001000752	47
56	2653	0.001013128	47
56	2680	0.001024752	47
56	2717	0.001037128	47
56	2744	0.001048752	47
56	2781	0.001061128	47
56	2805	0.001072752	47
56	2829	0.001084752	47
56	2862	0.001108752	47
56	2892	0.001132752	47
56	2922	0.001156752	47
56	2952	0.001180752	47
56	2982	0.001204752	47
56	3013	0.001228752	47
56	3035	0.001252752	47
57	138	0.000077128	40
57	169	0.000088752	40
57	210	0.000101128	40
57	241	0.000112752	40
57	282	0.000125128	40
57	312	0.000136752	40
57	349	0.000149128	40
57	376	0.000160752	40
57	413	0.000173128	40
57	440	0.000184752	40
57	477	0.000197128	40
57	504	0.000208752	40
57	541	0.000221128	40
57	568	0.000232752	40
57	605	0.000245128	40
57	632	0.000256752	40
57	669	0.000269128	40
57	696	0.000280752	40
57	733	0.000293128	40
57	760	0.000304752	40
57	797	0.000317128	40
57	824	0.000328752	40
57	861	0.000341128	40
57	888	0.000352752	40
57	925	0.000365128	40
57	952	0.000376752	40
57	989	0.000389128	40
57	1016	0.000400752	40
57	1053	0.000413128	40
57	1080	0.000424752	40
57	1117	0.000437128	40
57	1144	0.000448752	40
57	1181	0.000461128	40
57	1208	0.000472752	40
57	1245	0.000485128	40
57	1272	0.000496752	40
57	1309	0.000509128	40
57	1336	0.000520752	40
57	1373	0.000533128	40
57	1400	0.000544752	40
57	1437	0.000557128	40
57	1464	0.000568752	40
57	1501	0.000581128	40
57	1528	0.000592752	40
57	1565	0.000605128	40
57	1592	0.000616752	40
57	1629	0.000629128	40
57	1656	0.000640752	40
57	1693	0.000653128	40
57	1720	0.000664752	40
57	1757	0.000677128	40
57	1784	0.000688752	40
57	1821	0.000701128	40
57	1848	0.000712752	40
57	1885	0.000725128	40
57	1912	0.000736752	40
57	1949	0.000749128	40
57	1976	0.000760752	40
57	2013	0.000773128	40
57	2040	0.000784752	40
57	2077	0.000797128	40
57	2104	0.000808752	40
57	2141	0.000821128	40
57	2168	0.000832752	40
57	2205	0.000845128	40
57	2232	0.000856752	40
57	2269	0.000869128	40
57	2296	0.000880752	40
57	2333	0.000893128	40
57	2360	0.000904752	40
57	2397	0.000917128	40
57	2424	0.000928752	40
57	2461	0.000941128	40
57	2488	0.000952752	40
57	2525	0.000965128	40
57	2552	0.000976752	40
57	2589	0.000989128	40
57	2616	0.001000752	40
57	2653	0.001013128	40
57	2680	0.001024752	40
57	2717	0.001037128	40
57	2744	0.001048752	40
57	2781	0.001061128	40
57	2805	0.001072752	40
57	2829	0.001084752	40
57	2862	0.001108752	40
57	2892	0.001132752	40
57	2922	0.001156752	40
57	2952	0.001180752	40
57	2982	0.001204752	40
57	3013	0.001228752	40
57	3035	0.001252752	40

